CHEMBL7002
Actelion Java MolfileCreator 2.0

  0  0  0  0  0  0              0 V3000
M  V30 BEGIN CTAB
M  V30 COUNTS 23 25 0 0 0
M  V30 BEGIN ATOM
M  V30 1 S 0.0 0.0 0.0 0
M  V30 2 C 1.1051 1.0219 0.0 0
M  V30 3 C 0.606 -1.3665 0.0 0 CFG=2
M  V30 4 O 0.9387 2.5311 0.0 0
M  V30 5 N 2.4004 0.2733 0.0 0
M  V30 6 C 2.0914 -1.2002 0.0 0
M  V30 7 C -0.1544 -2.6618 0.0 0
M  V30 8 O 3.0896 -2.3053 0.0 0
M  V30 9 C 0.5941 -3.9571 0.0 0
M  V30 10 C 2.0914 -3.9453 0.0 0
M  V30 11 C -0.1663 -5.2524 0.0 0
M  V30 12 C 2.8401 -5.2405 0.0 0
M  V30 13 C 0.5822 -6.5477 0.0 0
M  V30 14 C 2.0796 -6.5358 0.0 0
M  V30 15 O 2.8282 -7.8311 0.0 0
M  V30 16 C 2.0677 -9.1264 0.0 0
M  V30 17 C 2.8163 -10.4217 0.0 0
M  V30 18 C 1.3903 -10.9208 0.0 0
M  V30 19 C 3.9571 -11.3843 0.0 0
M  V30 20 C 3.9571 -9.4354 0.0 0
M  V30 21 C 1.117 -12.3944 0.0 0
M  V30 22 C 3.6838 -12.8578 0.0 0
M  V30 23 C 2.2578 -13.3569 0.0 0
M  V30 END ATOM
M  V30 BEGIN BOND
M  V30 1 1 1 2
M  V30 2 1 1 3
M  V30 3 2 2 4
M  V30 4 1 2 5
M  V30 5 1 3 6
M  V30 6 1 3 7 CFG=3
M  V30 7 2 6 8
M  V30 8 1 7 9
M  V30 9 2 9 10
M  V30 10 1 9 11
M  V30 11 1 10 12
M  V30 12 2 11 13
M  V30 13 2 12 14
M  V30 14 1 14 15
M  V30 15 1 15 16
M  V30 16 1 16 17
M  V30 17 1 17 18
M  V30 18 1 17 19
M  V30 19 1 17 20
M  V30 20 1 18 21
M  V30 21 1 19 22
M  V30 22 1 21 23
M  V30 23 1 5 6
M  V30 24 1 13 14
M  V30 25 1 22 23
M  V30 END BOND
M  V30 BEGIN COLLECTION
M  V30 MDLV30/STERAC1 ATOMS=(1 3)
M  V30 END COLLECTION
M  V30 END CTAB
M  END
>  <Molecule Name>
CHEMBL7002

>  <smiles_curated>
CC1(COc2ccc(CC3SC(=O)NC3=O)cc2)CCCCC1

>  <pchembl_value>
5.0

>  <target_organism>
Homo sapiens

>  <standard_type>
EC50

>  <target_pref_name>
Pregnane X receptor

>  <assay_description>
Activation of human PXR expressed in human HepG2 (DPX-2) cells after 24 hrs by luciferase reporter gene based luminescent analysis,Activation of human PXR expressed in human HepG2 (DPX-2) cells assessed as induction of CYP3A4 after 24 hrs by luminescent analysis,Competitive binding affinity to human PXR LBD (111 to 434) by TR-FRET assay

>  <activity>
0

$$$$
CHEMBL4473036
Actelion Java MolfileCreator 2.0

  0  0  0  0  0  0              0 V3000
M  V30 BEGIN CTAB
M  V30 COUNTS 32 36 0 0 0
M  V30 BEGIN ATOM
M  V30 1 Cl 0.0 0.0 0.0 0
M  V30 2 C 0.7429 1.3089 0.0 0
M  V30 3 C -0.0117 2.6179 0.0 0
M  V30 4 C 2.2288 1.3207 0.0 0
M  V30 5 Cl -1.5212 2.6297 0.0 0
M  V30 6 C 0.7311 3.9269 0.0 0
M  V30 7 C 2.9599 2.6297 0.0 0
M  V30 8 C 2.217 3.9387 0.0 0
M  V30 9 C 4.4458 2.6415 0.0 0
M  V30 10 O 5.1888 3.9505 0.0 0
M  V30 11 N 6.6746 3.9623 0.0 0
M  V30 12 C 7.4176 5.2713 0.0 0
M  V30 13 C 8.9035 5.2831 0.0 0
M  V30 14 N 9.7761 4.0802 0.0 0
M  V30 15 C 9.7761 6.5095 0.0 0
M  V30 16 C 11.1913 4.5519 0.0 0
M  V30 17 C 9.7643 2.5944 0.0 0
M  V30 18 N 11.1913 6.0614 0.0 0
M  V30 19 C 9.3044 7.9483 0.0 0
M  V30 20 S 12.0639 3.3491 0.0 0
M  V30 21 C 11.1795 2.1462 0.0 0
M  V30 22 C 10.295 9.0686 0.0 0
M  V30 23 C 7.8303 8.2667 0.0 0
M  V30 24 C 9.8233 10.5073 0.0 0
M  V30 25 C 7.3586 9.7054 0.0 0
M  V30 26 C 8.3492 10.8257 0.0 0
M  V30 27 C 7.8775 12.2644 0.0 0
M  V30 28 C 8.8681 13.3847 0.0 0
M  V30 29 C 6.4034 12.5828 0.0 0
M  V30 30 C 8.3964 14.8234 0.0 0
M  V30 31 C 5.9317 14.0215 0.0 0
M  V30 32 C 6.9223 15.1418 0.0 0
M  V30 END ATOM
M  V30 BEGIN BOND
M  V30 1 1 1 2
M  V30 2 2 2 3
M  V30 3 1 2 4
M  V30 4 1 3 5
M  V30 5 1 3 6
M  V30 6 2 4 7
M  V30 7 2 6 8
M  V30 8 1 7 9
M  V30 9 1 9 10
M  V30 10 1 10 11
M  V30 11 2 11 12
M  V30 12 1 12 13
M  V30 13 1 13 14
M  V30 14 2 13 15
M  V30 15 1 14 16
M  V30 16 1 14 17
M  V30 17 1 15 18
M  V30 18 1 15 19
M  V30 19 1 16 20
M  V30 20 2 17 21
M  V30 21 2 19 22
M  V30 22 1 19 23
M  V30 23 1 22 24
M  V30 24 2 23 25
M  V30 25 2 24 26
M  V30 26 1 26 27
M  V30 27 2 27 28
M  V30 28 1 27 29
M  V30 29 1 28 30
M  V30 30 2 29 31
M  V30 31 2 30 32
M  V30 32 1 7 8
M  V30 33 2 16 18
M  V30 34 1 20 21
M  V30 35 1 25 26
M  V30 36 1 31 32
M  V30 END BOND
M  V30 END CTAB
M  END
>  <Molecule Name>
CHEMBL4473036

>  <smiles_curated>
Clc1ccc(CO/N=C/c2c(-c3ccc(-c4ccccc4)cc3)nc3sccn23)cc1Cl

>  <pchembl_value>
4.24

>  <target_organism>
Homo sapiens

>  <standard_type>
EC50

>  <target_pref_name>
Pregnane X receptor

>  <assay_description>
Agonist activity at human PXR transfected in human HepG2 cells cotransfected with CYP3A4 incubated for 23 hrs by luciferase reporter gene assay

>  <activity>
0

$$$$
CHEMBL514896
Actelion Java MolfileCreator 2.0

  0  0  0  0  0  0              0 V3000
M  V30 BEGIN CTAB
M  V30 COUNTS 34 38 0 0 0
M  V30 BEGIN ATOM
M  V30 1 S 0.0 0.0 0.0 0
M  V30 2 O -1.0136 1.1196 0.0 0
M  V30 3 O 0.99 -1.0961 0.0 0
M  V30 4 N 1.0961 1.0136 0.0 0
M  V30 5 C -1.1196 -0.99 0.0 0
M  V30 6 C 0.7778 2.4869 0.0 0
M  V30 7 C -2.5576 -0.5185 0.0 0
M  V30 8 C -0.825 -2.4397 0.0 0
M  V30 9 C -0.66 2.9583 0.0 0
M  V30 10 C 1.874 3.5005 0.0 0
M  V30 11 C -3.6773 -1.5086 0.0 0
M  V30 12 C -2.8758 0.9546 0.0 0
M  V30 13 C -1.9447 -3.4298 0.0 0
M  V30 14 C 0.5893 -2.8876 0.0 0
M  V30 15 C -0.9782 4.4316 0.0 0
M  V30 16 C 1.5557 4.9738 0.0 0
M  V30 17 C -3.3826 -2.9583 0.0 0
M  V30 18 C -5.1152 -1.0371 0.0 0
M  V30 19 C -1.65 -4.8795 0.0 0
M  V30 20 N -2.2865 5.1859 0.0 0
M  V30 21 C 0.1178 5.4452 0.0 0
M  V30 22 C -4.5023 -3.9484 0.0 0
M  V30 23 C -1.9918 6.6592 0.0 0
M  V30 24 N -0.5068 6.8242 0.0 0
M  V30 25 C 0.2357 8.1325 0.0 0
M  V30 26 C -0.5185 9.4408 0.0 0
M  V30 27 C 1.7207 8.1443 0.0 0
M  V30 28 C 0.2239 10.749 0.0 0
M  V30 29 C 2.4633 9.4526 0.0 0
M  V30 30 C 1.709 10.7608 0.0 0
M  V30 31 C -0.5303 12.0573 0.0 0
M  V30 32 C 2.4515 12.0691 0.0 0
M  V30 33 C 0.2121 13.3656 0.0 0
M  V30 34 C 1.6972 13.3774 0.0 0
M  V30 END ATOM
M  V30 BEGIN BOND
M  V30 1 2 1 2
M  V30 2 2 1 3
M  V30 3 1 1 4
M  V30 4 1 1 5
M  V30 5 1 4 6
M  V30 6 2 5 7
M  V30 7 1 5 8
M  V30 8 2 6 9
M  V30 9 1 6 10
M  V30 10 1 7 11
M  V30 11 1 7 12
M  V30 12 2 8 13
M  V30 13 1 8 14
M  V30 14 1 9 15
M  V30 15 2 10 16
M  V30 16 2 11 17
M  V30 17 1 11 18
M  V30 18 1 13 19
M  V30 19 1 15 20
M  V30 20 2 15 21
M  V30 21 1 17 22
M  V30 22 2 20 23
M  V30 23 1 21 24
M  V30 24 1 24 25
M  V30 25 2 25 26
M  V30 26 1 25 27
M  V30 27 1 26 28
M  V30 28 2 27 29
M  V30 29 1 28 30
M  V30 30 2 28 31
M  V30 31 2 30 32
M  V30 32 1 31 33
M  V30 33 1 32 34
M  V30 34 1 13 17
M  V30 35 1 16 21
M  V30 36 1 23 24
M  V30 37 1 29 30
M  V30 38 2 33 34
M  V30 END BOND
M  V30 END CTAB
M  END
>  <Molecule Name>
CHEMBL514896

>  <smiles_curated>
Cc1c(C)c(C)c(S(=O)(=O)Nc2ccc3c(c2)ncn3-c2ccc3ccccc3c2)c(C)c1C

>  <pchembl_value>
7.26

>  <target_organism>
Homo sapiens

>  <standard_type>
EC50

>  <target_pref_name>
Pregnane X receptor

>  <assay_description>
Agonist activity at human pregnane X receptor expressed in HGPXR reporter cells

>  <activity>
1

$$$$
CHEMBL4440933
Actelion Java MolfileCreator 2.0

  0  0  0  0  0  0              0 V3000
M  V30 BEGIN CTAB
M  V30 COUNTS 28 30 0 0 0
M  V30 BEGIN ATOM
M  V30 1 S 0.0 0.0 0.0 0
M  V30 2 O -1.5085 -0.1425 0.0 0
M  V30 3 O 1.3303 -0.1781 0.0 0
M  V30 4 C 0.1425 -1.4848 0.0 0
M  V30 5 C -0.1662 1.5085 0.0 0
M  V30 6 C 1.5085 -2.0906 0.0 0
M  V30 7 C -1.0928 -2.3638 0.0 0
M  V30 8 C 1.3303 1.5204 0.0 0
M  V30 9 C -1.6511 1.2116 0.0 0
M  V30 10 C -0.0237 3.0171 0.0 0
M  V30 11 C 1.6511 -3.5754 0.0 0
M  V30 12 C -0.9502 -3.8486 0.0 0
M  V30 13 C 2.0787 0.2256 0.0 0
M  V30 14 C 2.0787 2.8389 0.0 0
M  V30 15 C -2.4113 2.5301 0.0 0
M  V30 16 C -1.4135 3.6467 0.0 0
M  V30 17 C 0.4157 -4.4544 0.0 0
M  V30 18 C 3.5754 0.2375 0.0 0
M  V30 19 C 3.5754 2.8508 0.0 0
M  V30 20 F 0.5582 -5.9392 0.0 0
M  V30 21 C 4.3237 1.556 0.0 0
M  V30 22 C 5.8204 1.5679 0.0 0 CFG=1
M  V30 23 O 5.8085 0.0712 0.0 0
M  V30 24 C 5.8085 3.0884 0.0 0
M  V30 25 C 7.3171 1.5798 0.0 0
M  V30 26 F 5.7967 4.6088 0.0 0
M  V30 27 F 7.3052 3.1002 0.0 0
M  V30 28 F 4.3356 3.4685 0.0 0
M  V30 END ATOM
M  V30 BEGIN BOND
M  V30 1 2 1 2
M  V30 2 2 1 3
M  V30 3 1 1 4
M  V30 4 1 1 5
M  V30 5 2 4 6
M  V30 6 1 4 7
M  V30 7 1 5 8
M  V30 8 1 5 9
M  V30 9 1 5 10
M  V30 10 1 6 11
M  V30 11 2 7 12
M  V30 12 2 8 13
M  V30 13 1 8 14
M  V30 14 1 9 15
M  V30 15 1 10 16
M  V30 16 2 11 17
M  V30 17 1 13 18
M  V30 18 2 14 19
M  V30 19 1 17 20
M  V30 20 2 18 21
M  V30 21 1 21 22
M  V30 22 1 22 23 CFG=3
M  V30 23 1 22 24
M  V30 24 1 22 25
M  V30 25 1 24 26
M  V30 26 1 24 27
M  V30 27 1 24 28
M  V30 28 1 12 17
M  V30 29 1 15 16
M  V30 30 1 19 21
M  V30 END BOND
M  V30 BEGIN COLLECTION
M  V30 MDLV30/STERAC1 ATOMS=(1 22)
M  V30 END COLLECTION
M  V30 END CTAB
M  END
>  <Molecule Name>
CHEMBL4440933

>  <smiles_curated>
CC(O)(c1ccc(C2(S(=O)(=O)c3ccc(F)cc3)CCCC2)cc1)C(F)(F)F

>  <pchembl_value>
6.62

>  <target_organism>
Homo sapiens

>  <standard_type>
EC50

>  <target_pref_name>
Pregnane X receptor

>  <assay_description>
Transactivation of PXR in human HepG2 cells

>  <activity>
1

$$$$
CHEMBL242291
Actelion Java MolfileCreator 2.0

  0  0  0  0  0  0              0 V3000
M  V30 BEGIN CTAB
M  V30 COUNTS 24 25 0 0 0
M  V30 BEGIN ATOM
M  V30 1 S 0.0 0.0 0.0 0
M  V30 2 O -1.3128 0.7569 0.0 0
M  V30 3 O 1.2891 -0.7451 0.0 0
M  V30 4 N 0.7451 1.3128 0.0 0
M  V30 5 C -0.7569 -1.2891 0.0 0
M  V30 6 C 2.2353 1.3246 0.0 0
M  V30 7 C -0.0118 2.6256 0.0 0
M  V30 8 C -0.0118 -2.5783 0.0 0
M  V30 9 C -2.2708 -1.2773 0.0 0
M  V30 10 C 2.9804 0.0354 0.0 0
M  V30 11 C 2.9804 2.6374 0.0 0
M  V30 12 C 0.7332 3.9384 0.0 0
M  V30 13 C -0.7687 -3.8674 0.0 0
M  V30 14 C -3.0277 -2.5664 0.0 0
M  V30 15 C 4.4706 0.0473 0.0 0
M  V30 16 C 4.4706 2.6492 0.0 0
M  V30 17 F 1.4783 5.2512 0.0 0
M  V30 18 F -0.5795 4.6953 0.0 0
M  V30 19 F 2.0224 3.1933 0.0 0
M  V30 20 C -2.2826 -3.8556 0.0 0
M  V30 21 C 5.2157 1.3601 0.0 0
M  V30 22 C 6.7059 1.3719 0.0 0
M  V30 23 O 7.451 2.6847 0.0 0
M  V30 24 C 7.451 0.0827 0.0 0
M  V30 END ATOM
M  V30 BEGIN BOND
M  V30 1 2 1 2
M  V30 2 2 1 3
M  V30 3 1 1 4
M  V30 4 1 1 5
M  V30 5 1 4 6
M  V30 6 1 4 7
M  V30 7 2 5 8
M  V30 8 1 5 9
M  V30 9 2 6 10
M  V30 10 1 6 11
M  V30 11 1 7 12
M  V30 12 1 8 13
M  V30 13 2 9 14
M  V30 14 1 10 15
M  V30 15 2 11 16
M  V30 16 1 12 17
M  V30 17 1 12 18
M  V30 18 1 12 19
M  V30 19 2 13 20
M  V30 20 2 15 21
M  V30 21 1 21 22
M  V30 22 2 22 23
M  V30 23 1 22 24
M  V30 24 1 14 20
M  V30 25 1 16 21
M  V30 END BOND
M  V30 END CTAB
M  END
>  <Molecule Name>
CHEMBL242291

>  <smiles_curated>
CC(=O)c1ccc(N(CC(F)(F)F)S(=O)(=O)c2ccccc2)cc1

>  <pchembl_value>
5.0

>  <target_organism>
Homo sapiens

>  <standard_type>
EC50

>  <target_pref_name>
Pregnane X receptor

>  <assay_description>
Antagonist activity at human PXR by transient transfection assay

>  <activity>
0

$$$$
CHEMBL8739
Actelion Java MolfileCreator 2.0

  0  0  0  0  0  0              0 V3000
M  V30 BEGIN CTAB
M  V30 COUNTS 20 19 0 0 0
M  V30 BEGIN ATOM
M  V30 1 O 0.0 0.0 0.0 0
M  V30 2 C -0.7534 1.3068 0.0 0
M  V30 3 O -2.2604 1.3186 0.0 0
M  V30 4 C -0.0117 2.6136 0.0 0
M  V30 5 C 1.4716 2.6254 0.0 0
M  V30 6 C 2.2133 3.9322 0.0 0
M  V30 7 C 3.6968 3.944 0.0 0
M  V30 8 C 4.4385 5.2508 0.0 0
M  V30 9 C 5.9219 5.2626 0.0 0
M  V30 10 C 6.6636 6.5694 0.0 0
M  V30 11 C 8.147 6.5812 0.0 0
M  V30 12 C 8.8888 7.888 0.0 0
M  V30 13 C 8.1353 9.1949 0.0 0
M  V30 14 C 8.877 10.5017 0.0 0
M  V30 15 C 8.1235 11.8085 0.0 0
M  V30 16 C 6.6165 11.8203 0.0 0
M  V30 17 C 5.863 13.1271 0.0 0
M  V30 18 C 4.3561 13.1389 0.0 0
M  V30 19 C 3.6026 11.8556 0.0 0
M  V30 20 C 2.0956 11.8674 0.0 0
M  V30 END ATOM
M  V30 BEGIN BOND
M  V30 1 2 1 2
M  V30 2 1 2 3
M  V30 3 1 2 4
M  V30 4 1 4 5
M  V30 5 1 5 6
M  V30 6 1 6 7
M  V30 7 1 7 8
M  V30 8 1 8 9
M  V30 9 1 9 10
M  V30 10 1 10 11
M  V30 11 2 11 12
M  V30 12 1 12 13
M  V30 13 1 13 14
M  V30 14 2 14 15
M  V30 15 1 15 16
M  V30 16 1 16 17
M  V30 17 2 17 18
M  V30 18 1 18 19
M  V30 19 1 19 20
M  V30 END BOND
M  V30 END CTAB
M  END
>  <Molecule Name>
CHEMBL8739

>  <smiles_curated>
CC/C=C\C/C=C\C/C=C\CCCCCCCC(=O)O

>  <pchembl_value>
7.15

>  <target_organism>
Homo sapiens

>  <standard_type>
EC50

>  <target_pref_name>
Pregnane X receptor

>  <assay_description>
Activation of human PXR expressed in human HepG2 (DPX-2) cells assessed as induction of CYP3A4 after 24 hrs by luminescent analysis,Competitive binding affinity to human PXR LBD (111 to 434) by TR-FRET assay

>  <activity>
1

$$$$
CHEMBL242526
Actelion Java MolfileCreator 2.0

  0  0  0  0  0  0              0 V3000
M  V30 BEGIN CTAB
M  V30 COUNTS 27 28 0 0 0
M  V30 BEGIN ATOM
M  V30 1 S 0.0 0.0 0.0 0
M  V30 2 O -1.3107 -0.7439 0.0 0
M  V30 3 O 1.2871 0.7557 0.0 0
M  V30 4 N 0.7439 -1.2871 0.0 0
M  V30 5 C -0.7557 1.3107 0.0 0
M  V30 6 C -0.0118 -2.5742 0.0 0
M  V30 7 C 2.2318 -1.2753 0.0 0
M  V30 8 C -0.0118 2.6215 0.0 0
M  V30 9 C -2.2672 1.3225 0.0 0
M  V30 10 C -1.5233 -2.5624 0.0 0
M  V30 11 C 0.7321 -3.8614 0.0 0
M  V30 12 C 2.9757 -2.5624 0.0 0
M  V30 13 C -0.7675 3.9322 0.0 0
M  V30 14 C -3.0229 2.6333 0.0 0
M  V30 15 C -2.279 -3.8496 0.0 0
M  V30 16 C -0.0236 -5.1485 0.0 0
M  V30 17 F 3.7197 -3.8496 0.0 0
M  V30 18 F 4.2629 -1.8067 0.0 0
M  V30 19 F 1.665 -3.3064 0.0 0
M  V30 20 C -2.279 3.944 0.0 0
M  V30 21 C -1.5351 -5.1367 0.0 0
M  V30 22 C -2.2908 -6.4238 0.0 0 CFG=1
M  V30 23 O -1.5469 -7.711 0.0 0
M  V30 24 C -3.8023 -6.412 0.0 0
M  V30 25 F -5.3138 -6.4002 0.0 0
M  V30 26 F -3.8141 -7.8999 0.0 0
M  V30 27 F -3.8141 -4.9005 0.0 0
M  V30 END ATOM
M  V30 BEGIN BOND
M  V30 1 2 1 2
M  V30 2 2 1 3
M  V30 3 1 1 4
M  V30 4 1 1 5
M  V30 5 1 4 6
M  V30 6 1 4 7
M  V30 7 2 5 8
M  V30 8 1 5 9
M  V30 9 2 6 10
M  V30 10 1 6 11
M  V30 11 1 7 12
M  V30 12 1 8 13
M  V30 13 2 9 14
M  V30 14 1 10 15
M  V30 15 2 11 16
M  V30 16 1 12 17
M  V30 17 1 12 18
M  V30 18 1 12 19
M  V30 19 2 13 20
M  V30 20 2 15 21
M  V30 21 1 21 22
M  V30 22 1 22 23 CFG=1
M  V30 23 1 22 24
M  V30 24 1 24 25
M  V30 25 1 24 26
M  V30 26 1 24 27
M  V30 27 1 14 20
M  V30 28 1 16 21
M  V30 END BOND
M  V30 BEGIN COLLECTION
M  V30 MDLV30/STERAC1 ATOMS=(1 22)
M  V30 END COLLECTION
M  V30 END CTAB
M  END
>  <Molecule Name>
CHEMBL242526

>  <smiles_curated>
O=S(=O)(c1ccccc1)N(CC(F)(F)F)c1ccc(C(O)C(F)(F)F)cc1

>  <pchembl_value>
6.0

>  <target_organism>
Homo sapiens

>  <standard_type>
EC50

>  <target_pref_name>
Pregnane X receptor

>  <assay_description>
Antagonist activity at human PXR by transient transfection assay

>  <activity>
0

$$$$
CHEMBL1535402
Actelion Java MolfileCreator 2.0

  0  0  0  0  0  0              0 V3000
M  V30 BEGIN CTAB
M  V30 COUNTS 22 25 0 0 0
M  V30 BEGIN ATOM
M  V30 1 Cl 0.0 0.0 0.0 0
M  V30 2 C -1.4352 -0.4235 0.0 0
M  V30 3 C -2.5411 0.5999 0.0 0
M  V30 4 C -1.7764 -1.8705 0.0 0
M  V30 5 O -2.2234 2.0705 0.0 0
M  V30 6 C -3.9763 0.1764 0.0 0
M  V30 7 C -3.2116 -2.294 0.0 0
M  V30 8 C -4.3175 -1.2705 0.0 0
M  V30 9 C -3.3293 -3.7763 0.0 0
M  V30 10 C -5.8116 -1.4823 0.0 0 CFG=1
M  V30 11 C -4.5763 -4.6116 0.0 0
M  V30 12 C -6.5645 -0.1764 0.0 0
M  V30 13 C -6.5645 -2.7646 0.0 0 CFG=1
M  V30 14 N -6.0116 -4.1646 0.0 0
M  V30 15 C -8.0703 -0.1647 0.0 0
M  V30 16 C -5.8233 1.1293 0.0 0
M  V30 17 C -8.0703 -2.7528 0.0 0
M  V30 18 C -7.0351 -5.2469 0.0 0
M  V30 19 C -8.8233 1.1411 0.0 0
M  V30 20 C -8.8233 -1.447 0.0 0
M  V30 21 C -6.5763 2.4352 0.0 0
M  V30 22 C -8.0821 2.4469 0.0 0
M  V30 END ATOM
M  V30 BEGIN BOND
M  V30 1 1 1 2
M  V30 2 2 2 3
M  V30 3 1 2 4
M  V30 4 1 3 5
M  V30 5 1 3 6
M  V30 6 2 4 7
M  V30 7 2 6 8
M  V30 8 1 7 9
M  V30 9 1 10 8 CFG=3
M  V30 10 1 9 11
M  V30 11 1 10 12
M  V30 12 1 10 13
M  V30 13 1 11 14
M  V30 14 2 12 15
M  V30 15 1 12 16
M  V30 16 1 13 17
M  V30 17 1 14 18
M  V30 18 1 15 19
M  V30 19 1 15 20
M  V30 20 2 16 21
M  V30 21 2 19 22
M  V30 22 1 7 8
M  V30 23 1 13 14 CFG=1
M  V30 24 1 17 20
M  V30 25 1 21 22
M  V30 END BOND
M  V30 BEGIN COLLECTION
M  V30 MDLV30/STEABS ATOMS=(2 10 13)
M  V30 END COLLECTION
M  V30 END CTAB
M  END
>  <Molecule Name>
CHEMBL1535402

>  <smiles_curated>
CN1CCc2cc(Cl)c(O)cc2[C@H]2c3ccccc3CC[C@@H]21

>  <pchembl_value>
5.2

>  <target_organism>
Homo sapiens

>  <standard_type>
EC50

>  <target_pref_name>
Pregnane X receptor

>  <assay_description>
Activation of human PXR expressed in human HepG2 (DPX-2) cells after 24 hrs by luciferase reporter gene based luminescent analysis,Activation of human PXR expressed in human HepG2 (DPX-2) cells assessed as induction of CYP3A4 after 24 hrs by luminescent analysis,Competitive binding affinity to human PXR LBD (111 to 434) by TR-FRET assay

>  <activity>
0

$$$$
CHEMBL402063
Actelion Java MolfileCreator 2.0

  0  0  0  0  0  0              0 V3000
M  V30 BEGIN CTAB
M  V30 COUNTS 23 26 0 0 0
M  V30 BEGIN ATOM
M  V30 1 O 0.0 0.0 0.0 0
M  V30 2 C -0.7572 -1.2897 0.0 0
M  V30 3 C -0.0236 -2.5795 0.0 0
M  V30 4 C -2.2718 -1.2779 0.0 0
M  V30 5 C -0.7809 -3.8693 0.0 0
M  V30 6 C -3.0291 -2.5677 0.0 0
M  V30 7 C -2.2955 -3.8574 0.0 0 CFG=2
M  V30 8 C -0.0473 -5.159 0.0 0
M  V30 9 C -3.0528 -5.1472 0.0 0 CFG=2
M  V30 10 C -3.8101 -3.8456 0.0 0
M  V30 11 C -0.8046 -6.4488 0.0 0
M  V30 12 C -2.3192 -6.437 0.0 0 CFG=1
M  V30 13 C -4.5674 -5.1354 0.0 0
M  V30 14 C -3.0765 -7.7268 0.0 0 CFG=1
M  V30 15 C -5.3247 -6.4252 0.0 0
M  V30 16 C -4.5911 -7.7149 0.0 0 CFG=2
M  V30 17 C -2.6268 -9.1467 0.0 0
M  V30 18 C -5.0644 -9.1349 0.0 0
M  V30 19 C -6.0938 -7.8569 0.0 0
M  V30 20 C -3.8574 -10.0223 0.0 0
M  V30 21 C -6.508 -9.5845 0.0 0
M  V30 22 O -3.8693 -11.5133 0.0 0
M  V30 23 C -7.6321 -8.5669 0.0 0
M  V30 END ATOM
M  V30 BEGIN BOND
M  V30 1 2 1 2
M  V30 2 1 2 3
M  V30 3 1 2 4
M  V30 4 2 3 5
M  V30 5 1 4 6
M  V30 6 1 5 7
M  V30 7 1 5 8
M  V30 8 1 7 9
M  V30 9 1 7 10 CFG=3
M  V30 10 1 8 11
M  V30 11 1 9 12
M  V30 12 1 9 13 CFG=3
M  V30 13 1 12 14
M  V30 14 1 13 15
M  V30 15 1 14 16
M  V30 16 1 14 17 CFG=3
M  V30 17 1 16 18
M  V30 18 1 16 19 CFG=3
M  V30 19 1 17 20
M  V30 20 2 18 21
M  V30 21 2 20 22
M  V30 22 1 21 23
M  V30 23 1 6 7
M  V30 24 1 12 11 CFG=1
M  V30 25 1 15 16
M  V30 26 1 18 20
M  V30 END BOND
M  V30 BEGIN COLLECTION
M  V30 MDLV30/STEABS ATOMS=(5 7 9 12 14 16)
M  V30 END COLLECTION
M  V30 END CTAB
M  END
>  <Molecule Name>
CHEMBL402063

>  <smiles_curated>
C/C=C1/C(=O)C[C@H]2[C@@H]3CCC4=CC(=O)CC[C@]4(C)[C@H]3CC[C@]12C

>  <pchembl_value>
5.6

>  <target_organism>
Homo sapiens

>  <standard_type>
EC50

>  <target_pref_name>
Pregnane X receptor

>  <assay_description>
Agonist activity at PXR (unknown origin) by Alpha Screen assay

>  <activity>
0

$$$$
CHEMBL3823873
Actelion Java MolfileCreator 2.0

  0  0  0  0  0  0              0 V3000
M  V30 BEGIN CTAB
M  V30 COUNTS 19 21 0 0 0
M  V30 BEGIN ATOM
M  V30 1 S 0.0 0.0 0.0 0
M  V30 2 C 1.4937 0.0118 0.0 0
M  V30 3 N 2.2406 -1.2803 0.0 0
M  V30 4 C 2.2406 1.3278 0.0 0
M  V30 5 C 3.7344 -1.2685 0.0 0
M  V30 6 C 3.7344 1.3396 0.0 0
M  V30 7 C 1.4819 2.6437 0.0 0
M  V30 8 N 4.4813 0.0474 0.0 0
M  V30 9 C 4.4813 -2.5607 0.0 0
M  V30 10 C 4.4813 2.6556 0.0 0
M  V30 11 C 2.2288 3.9597 0.0 0
M  V30 12 C 5.9751 -2.5489 0.0 0
M  V30 13 C 3.7226 -3.853 0.0 0
M  V30 14 C 3.7226 3.9715 0.0 0
M  V30 15 C 6.722 -3.8411 0.0 0
M  V30 16 C 4.4695 -5.1452 0.0 0
M  V30 17 O 8.2158 -3.8293 0.0 0
M  V30 18 C 5.9633 -5.1334 0.0 0
M  V30 19 C 8.9627 -5.1215 0.0 0
M  V30 END ATOM
M  V30 BEGIN BOND
M  V30 1 2 1 2
M  V30 2 1 2 3
M  V30 3 1 2 4
M  V30 4 1 3 5
M  V30 5 2 4 6
M  V30 6 1 4 7
M  V30 7 2 5 8
M  V30 8 1 5 9
M  V30 9 1 6 10
M  V30 10 2 7 11
M  V30 11 2 9 12
M  V30 12 1 9 13
M  V30 13 2 10 14
M  V30 14 1 12 15
M  V30 15 2 13 16
M  V30 16 1 15 17
M  V30 17 2 15 18
M  V30 18 1 17 19
M  V30 19 1 6 8
M  V30 20 1 11 14
M  V30 21 1 16 18
M  V30 END BOND
M  V30 END CTAB
M  END
>  <Molecule Name>
CHEMBL3823873

>  <smiles_curated>
COc1cccc(-c2nc3ccccc3c(=S)[nH]2)c1

>  <pchembl_value>
6.07

>  <target_organism>
Homo sapiens

>  <standard_type>
EC50

>  <target_pref_name>
Pregnane X receptor

>  <assay_description>
Agonist activity at PXR expressed in human HepG2 cells after 24 hrs by p3A4-luciferase reporter gene assay

>  <activity>
1

$$$$
CHEMBL465733
Actelion Java MolfileCreator 2.0

  0  0  0  0  0  0              0 V3000
M  V30 BEGIN CTAB
M  V30 COUNTS 30 32 0 0 0
M  V30 BEGIN ATOM
M  V30 1 S 0.0 0.0 0.0 0
M  V30 2 O -0.0118 -1.4926 0.0 0
M  V30 3 O -0.0118 1.5163 0.0 0
M  V30 4 N -1.5163 0.0118 0.0 0
M  V30 5 C 1.4926 0.0118 0.0 0
M  V30 6 C -2.2744 -1.2793 0.0 0
M  V30 7 C 2.227 -1.2793 0.0 0
M  V30 8 C 2.227 1.3267 0.0 0
M  V30 9 C -1.54 -2.5706 0.0 0
M  V30 10 C -3.7907 -1.2675 0.0 0
M  V30 11 C 3.7197 -1.2675 0.0 0
M  V30 12 C 1.4689 -2.5706 0.0 0
M  V30 13 C 3.7197 1.3386 0.0 0
M  V30 14 C 1.4689 2.6417 0.0 0
M  V30 15 C -2.2981 -3.8618 0.0 0
M  V30 16 C -4.5489 -2.5587 0.0 0
M  V30 17 C 4.4541 0.0473 0.0 0
M  V30 18 C 4.4541 -2.5587 0.0 0
M  V30 19 C 4.4541 2.6535 0.0 0
M  V30 20 N -1.848 -5.2834 0.0 0
M  V30 21 C -3.8144 -3.85 0.0 0
M  V30 22 C 5.9468 0.0592 0.0 0
M  V30 23 C -3.08 -6.16 0.0 0
M  V30 24 N -4.2883 -5.2715 0.0 0
M  V30 25 C -5.7335 -5.7217 0.0 0
M  V30 26 C -6.0534 -7.1788 0.0 0
M  V30 27 C -7.4986 -7.6289 0.0 0
M  V30 28 C -7.8185 -9.086 0.0 0
M  V30 29 C -9.2637 -9.5362 0.0 0
M  V30 30 C -9.5835 -10.9932 0.0 0
M  V30 END ATOM
M  V30 BEGIN BOND
M  V30 1 2 1 2
M  V30 2 2 1 3
M  V30 3 1 1 4
M  V30 4 1 1 5
M  V30 5 1 4 6
M  V30 6 2 5 7
M  V30 7 1 5 8
M  V30 8 2 6 9
M  V30 9 1 6 10
M  V30 10 1 7 11
M  V30 11 1 7 12
M  V30 12 2 8 13
M  V30 13 1 8 14
M  V30 14 1 9 15
M  V30 15 2 10 16
M  V30 16 2 11 17
M  V30 17 1 11 18
M  V30 18 1 13 19
M  V30 19 1 15 20
M  V30 20 2 15 21
M  V30 21 1 17 22
M  V30 22 2 20 23
M  V30 23 1 21 24
M  V30 24 1 24 25
M  V30 25 1 25 26
M  V30 26 1 26 27
M  V30 27 1 27 28
M  V30 28 1 28 29
M  V30 29 1 29 30
M  V30 30 1 13 17
M  V30 31 1 16 21
M  V30 32 1 23 24
M  V30 END BOND
M  V30 END CTAB
M  END
>  <Molecule Name>
CHEMBL465733

>  <smiles_curated>
CCCCCCn1cnc2cc(NS(=O)(=O)c3c(C)c(C)c(C)c(C)c3C)ccc21

>  <pchembl_value>
7.89

>  <target_organism>
Homo sapiens

>  <standard_type>
EC50

>  <target_pref_name>
Pregnane X receptor

>  <assay_description>
Agonist activity at human pregnane X receptor expressed in HGPXR reporter cells

>  <activity>
1

$$$$
CHEMBL4464747
Actelion Java MolfileCreator 2.0

  0  0  0  0  0  0              0 V3000
M  V30 BEGIN CTAB
M  V30 COUNTS 29 33 0 0 0
M  V30 BEGIN ATOM
M  V30 1 S 0.0 0.0 0.0 0
M  V30 2 C 1.4212 -0.45 0.0 0
M  V30 3 C -0.0118 1.5159 0.0 0
M  V30 4 C 2.2976 0.7816 0.0 0
M  V30 5 C 1.4093 1.9897 0.0 0
M  V30 6 C 3.7899 0.7935 0.0 0 CFG=2
M  V30 7 N 4.5361 2.1081 0.0 0
M  V30 8 C 4.5361 -0.4974 0.0 0 CFG=1
M  V30 9 C 6.0284 2.12 0.0 0
M  V30 10 C 6.0284 -0.4855 0.0 0 CFG=1
M  V30 11 C 4.0623 -1.9186 0.0 0
M  V30 12 C 6.7745 0.829 0.0 0
M  V30 13 C 6.7745 3.4346 0.0 0
M  V30 14 N 6.4784 -1.9068 0.0 0
M  V30 15 C 5.2704 -2.7951 0.0 0
M  V30 16 C 8.2668 0.8409 0.0 0
M  V30 17 C 8.2668 3.4465 0.0 0
M  V30 18 C 6.0165 4.7493 0.0 0
M  V30 19 C 7.8997 -2.3568 0.0 0
M  V30 20 C 9.013 2.1555 0.0 0
M  V30 21 C 9.013 4.7611 0.0 0
M  V30 22 C 6.7627 6.0639 0.0 0
M  V30 23 O 9.0012 -1.3383 0.0 0
M  V30 24 O 8.1958 -3.8136 0.0 0
M  V30 25 C 8.255 6.0758 0.0 0
M  V30 26 C 9.617 -4.2637 0.0 0
M  V30 27 C 9.1433 -5.6849 0.0 0
M  V30 28 C 10.0671 -2.8187 0.0 0
M  V30 29 C 11.0383 -4.7137 0.0 0
M  V30 END ATOM
M  V30 BEGIN BOND
M  V30 1 1 1 2
M  V30 2 1 1 3
M  V30 3 2 2 4
M  V30 4 2 3 5
M  V30 5 1 6 4 CFG=3
M  V30 6 1 6 7
M  V30 7 1 6 8
M  V30 8 1 7 9
M  V30 9 1 8 10
M  V30 10 1 8 11 CFG=1
M  V30 11 2 9 12
M  V30 12 1 9 13
M  V30 13 1 10 14 CFG=1
M  V30 14 1 11 15
M  V30 15 1 12 16
M  V30 16 2 13 17
M  V30 17 1 13 18
M  V30 18 1 14 19
M  V30 19 2 16 20
M  V30 20 1 17 21
M  V30 21 1 18 22
M  V30 22 2 19 23
M  V30 23 1 19 24
M  V30 24 1 21 25
M  V30 25 1 24 26
M  V30 26 1 26 27
M  V30 27 1 26 28
M  V30 28 1 26 29
M  V30 29 1 4 5
M  V30 30 1 10 12
M  V30 31 1 14 15
M  V30 32 1 17 20
M  V30 33 1 22 25
M  V30 END BOND
M  V30 BEGIN COLLECTION
M  V30 MDLV30/STEABS ATOMS=(3 6 8 10)
M  V30 END COLLECTION
M  V30 END CTAB
M  END
>  <Molecule Name>
CHEMBL4464747

>  <smiles_curated>
CC(C)(C)OC(=O)N1CC[C@@H]2[C@H]1c1ccc3CCCCc3c1N[C@H]2c1cscc1

>  <pchembl_value>
5.92

>  <target_organism>
Homo sapiens

>  <standard_type>
EC50

>  <target_pref_name>
Pregnane X receptor

>  <assay_description>
Agonist activity at PXR (unknown origin) by AlphaScreen assay

>  <activity>
0

$$$$
CHEMBL295786
Actelion Java MolfileCreator 2.0

  0  0  0  0  0  0              0 V3000
M  V30 BEGIN CTAB
M  V30 COUNTS 21 23 0 0 0
M  V30 BEGIN ATOM
M  V30 1 O 0.0 0.0 0.0 0
M  V30 2 C -1.5081 0.0117 0.0 0
M  V30 3 N -2.2622 -1.2725 0.0 0
M  V30 4 C -2.2622 1.3196 0.0 0
M  V30 5 C -3.7704 -1.2607 0.0 0
M  V30 6 C -1.5199 -2.5568 0.0 0
M  V30 7 C -3.7704 1.3314 0.0 0
M  V30 8 C -1.5199 2.6275 0.0 0
M  V30 9 O -4.5245 -2.545 0.0 0
M  V30 10 C -4.5245 0.0471 0.0 0
M  V30 11 C -2.274 -3.8411 0.0 0
M  V30 12 C -4.5245 2.6393 0.0 0
M  V30 13 C -2.274 3.9354 0.0 0
M  V30 14 C -6.0327 0.0589 0.0 0
M  V30 15 C -1.5317 -5.1254 0.0 0
M  V30 16 C -3.7822 3.9471 0.0 0
M  V30 17 C -6.0327 2.6511 0.0 0
M  V30 18 C -6.7868 1.3667 0.0 0
M  V30 19 N -2.2858 -6.4097 0.0 0
M  V30 20 C -1.5435 -7.694 0.0 0
M  V30 21 C -3.794 -6.3979 0.0 0
M  V30 END ATOM
M  V30 BEGIN BOND
M  V30 1 2 1 2
M  V30 2 1 2 3
M  V30 3 1 2 4
M  V30 4 1 3 5
M  V30 5 1 3 6
M  V30 6 1 4 7
M  V30 7 2 4 8
M  V30 8 2 5 9
M  V30 9 1 5 10
M  V30 10 1 6 11
M  V30 11 1 7 12
M  V30 12 1 8 13
M  V30 13 1 10 14
M  V30 14 1 11 15
M  V30 15 1 12 16
M  V30 16 2 12 17
M  V30 17 2 14 18
M  V30 18 1 15 19
M  V30 19 1 19 20
M  V30 20 1 19 21
M  V30 21 2 7 10
M  V30 22 2 13 16
M  V30 23 1 17 18
M  V30 END BOND
M  V30 END CTAB
M  END
>  <Molecule Name>
CHEMBL295786

>  <smiles_curated>
CN(C)CCCN1C(=O)c2c3c(cccc3ccc2)C1=O

>  <pchembl_value>
4.37

>  <target_organism>
Homo sapiens

>  <standard_type>
EC50

>  <target_pref_name>
Pregnane X receptor

>  <assay_description>
PUBCHEM_BIOASSAY: Luminescence-based counterscreen for activators of the Aryl Hydrocarbon Receptor (AHR): cell-based high throughput dose response screening assay for activators of the Pregnane X Receptor (PXR). (Class of assay: confirmatory) [Related pubchem assays: 2796 (Primary screen (AHR activators in singlicate)), 2845 (Confirmation screen (AHR activators in triplicate)), 434939 (Counterscreen (PXR activators in triplicate)), 2804 (Summary (AHR activators))]

>  <activity>
0

$$$$
CHEMBL3318964
Actelion Java MolfileCreator 2.0

  0  0  0  0  0  0              0 V3000
M  V30 BEGIN CTAB
M  V30 COUNTS 27 31 0 0 0
M  V30 BEGIN ATOM
M  V30 1 Cl 0.0 0.0 0.0 0
M  V30 2 C -1.5046 0.0117 0.0 0
M  V30 3 C -2.2569 -1.2695 0.0 0
M  V30 4 C -2.2569 1.3165 0.0 0
M  V30 5 C -3.7615 -1.2577 0.0 0
M  V30 6 C -3.7615 1.3282 0.0 0
M  V30 7 C -4.5138 0.047 0.0 0
M  V30 8 O -6.0184 0.0587 0.0 0
M  V30 9 C -6.7707 1.3635 0.0 0
M  V30 10 C -8.2754 1.3753 0.0 0
M  V30 11 C -6.0302 2.6683 0.0 0
M  V30 12 N -9.2863 0.2821 0.0 0
M  V30 13 N -9.0277 2.6801 0.0 0
M  V30 14 C -6.7825 3.9731 0.0 0
M  V30 15 N -10.6616 0.9051 0.0 0
M  V30 16 C -10.497 2.3862 0.0 0
M  V30 17 C -8.2871 3.9848 0.0 0
M  V30 18 C -11.6137 3.3971 0.0 0
M  V30 19 C -10.8379 4.6784 0.0 0
M  V30 20 C -13.0126 3.9731 0.0 0
M  V30 21 C -12.801 2.492 0.0 0
M  V30 22 C -9.3568 4.6431 0.0 0
M  V30 23 C -11.555 6.0067 0.0 0
M  V30 24 C -8.581 5.9244 0.0 0
M  V30 25 C -10.7791 7.288 0.0 0
M  V30 26 C -9.298 7.2527 0.0 0
M  V30 27 Cl -8.5222 8.534 0.0 0
M  V30 END ATOM
M  V30 BEGIN BOND
M  V30 1 1 1 2
M  V30 2 2 2 3
M  V30 3 1 2 4
M  V30 4 1 3 5
M  V30 5 2 4 6
M  V30 6 2 5 7
M  V30 7 1 7 8
M  V30 8 1 8 9
M  V30 9 1 9 10
M  V30 10 2 9 11
M  V30 11 2 10 12
M  V30 12 1 10 13
M  V30 13 1 11 14
M  V30 14 1 12 15
M  V30 15 1 13 16
M  V30 16 1 13 17
M  V30 17 1 16 18
M  V30 18 1 18 19
M  V30 19 1 18 20
M  V30 20 1 18 21
M  V30 21 2 19 22
M  V30 22 1 19 23
M  V30 23 1 22 24
M  V30 24 2 23 25
M  V30 25 2 24 26
M  V30 26 1 26 27
M  V30 27 1 6 7
M  V30 28 2 14 17
M  V30 29 2 15 16
M  V30 30 1 20 21
M  V30 31 1 25 26
M  V30 END BOND
M  V30 END CTAB
M  END
>  <Molecule Name>
CHEMBL3318964

>  <smiles_curated>
Clc1ccc(Oc2cccn3c(C4(c5ccc(Cl)cc5)CC4)nnc23)cc1

>  <pchembl_value>
5.92

>  <target_organism>
Homo sapiens

>  <standard_type>
EC50

>  <target_pref_name>
Pregnane X receptor

>  <assay_description>
Activation of PXR (unknown origin)

>  <activity>
0

$$$$
CHEMBL1557667
Actelion Java MolfileCreator 2.0

  0  0  0  0  0  0              0 V3000
M  V30 BEGIN CTAB
M  V30 COUNTS 18 19 0 0 0
M  V30 BEGIN ATOM
M  V30 1 S 0.0 0.0 0.0 0
M  V30 2 C 0.1411 1.4939 0.0 0
M  V30 3 S -0.9763 2.5055 0.0 0
M  V30 4 N 1.4233 2.2467 0.0 0
M  V30 5 C -0.3764 3.8818 0.0 0
M  V30 6 C 1.1057 3.7171 0.0 0
M  V30 7 C 2.776 1.6468 0.0 0
M  V30 8 C -1.1292 5.1875 0.0 0
M  V30 9 N 2.0938 4.8346 0.0 0
M  V30 10 O -2.6349 5.1992 0.0 0
M  V30 11 N -0.3881 6.4932 0.0 0
M  V30 12 C -1.141 7.7989 0.0 0
M  V30 13 C -2.6466 7.8106 0.0 0
M  V30 14 C -0.3999 9.1046 0.0 0
M  V30 15 F -3.3995 6.5285 0.0 0
M  V30 16 C -3.3995 9.1163 0.0 0
M  V30 17 C -1.1527 10.4103 0.0 0
M  V30 18 C -2.6584 10.422 0.0 0
M  V30 END ATOM
M  V30 BEGIN BOND
M  V30 1 2 1 2
M  V30 2 1 2 3
M  V30 3 1 2 4
M  V30 4 1 3 5
M  V30 5 1 4 6
M  V30 6 1 4 7
M  V30 7 1 5 8
M  V30 8 1 6 9
M  V30 9 2 8 10
M  V30 10 1 8 11
M  V30 11 1 11 12
M  V30 12 2 12 13
M  V30 13 1 12 14
M  V30 14 1 13 15
M  V30 15 1 13 16
M  V30 16 2 14 17
M  V30 17 2 16 18
M  V30 18 2 5 6
M  V30 19 1 17 18
M  V30 END BOND
M  V30 END CTAB
M  END
>  <Molecule Name>
CHEMBL1557667

>  <smiles_curated>
Cn1c(N)c(C(=O)Nc2ccccc2F)sc1=S

>  <pchembl_value>
4.18

>  <target_organism>
Homo sapiens

>  <standard_type>
EC50

>  <target_pref_name>
Pregnane X receptor

>  <assay_description>
PUBCHEM_BIOASSAY: Luminescence-based counterscreen for activators of the Aryl Hydrocarbon Receptor (AHR): cell-based high throughput dose response screening assay for activators of the Pregnane X Receptor (PXR). (Class of assay: confirmatory) [Related pubchem assays: 2796 (Primary screen (AHR activators in singlicate)), 2845 (Confirmation screen (AHR activators in triplicate)), 434939 (Counterscreen (PXR activators in triplicate)), 2804 (Summary (AHR activators))]

>  <activity>
0

$$$$
CHEMBL1351761
Actelion Java MolfileCreator 2.0

  0  0  0  0  0  0              0 V3000
M  V30 BEGIN CTAB
M  V30 COUNTS 17 18 0 0 0
M  V30 BEGIN ATOM
M  V30 1 O 0.0 0.0 0.0 0
M  V30 2 C 0.7441 1.3111 0.0 0
M  V30 3 N -0.0118 2.6222 0.0 0
M  V30 4 C 2.2324 1.3229 0.0 0
M  V30 5 C -1.5237 2.634 0.0 0
M  V30 6 C 2.9766 0.0354 0.0 0
M  V30 7 C 2.9766 2.634 0.0 0
M  V30 8 C -2.2797 1.3465 0.0 0
M  V30 9 C -2.2797 3.9452 0.0 0
M  V30 10 C 4.4649 0.0472 0.0 0
M  V30 11 C 4.4649 2.6458 0.0 0
M  V30 12 N -1.5355 0.059 0.0 0
M  V30 13 C -3.7916 1.3583 0.0 0
M  V30 14 C -3.7916 3.957 0.0 0
M  V30 15 C 5.2091 1.3583 0.0 0
M  V30 16 C -4.5476 2.6695 0.0 0
M  V30 17 N 6.6974 1.3701 0.0 0
M  V30 END ATOM
M  V30 BEGIN BOND
M  V30 1 2 1 2
M  V30 2 1 2 3
M  V30 3 1 2 4
M  V30 4 1 3 5
M  V30 5 2 4 6
M  V30 6 1 4 7
M  V30 7 2 5 8
M  V30 8 1 5 9
M  V30 9 1 6 10
M  V30 10 2 7 11
M  V30 11 1 8 12
M  V30 12 1 8 13
M  V30 13 2 9 14
M  V30 14 2 10 15
M  V30 15 2 13 16
M  V30 16 1 15 17
M  V30 17 1 11 15
M  V30 18 1 14 16
M  V30 END BOND
M  V30 END CTAB
M  END
>  <Molecule Name>
CHEMBL1351761

>  <smiles_curated>
Nc1ccc(C(=O)Nc2ccccc2N)cc1

>  <pchembl_value>
4.55

>  <target_organism>
Homo sapiens

>  <standard_type>
EC50

>  <target_pref_name>
Pregnane X receptor

>  <assay_description>
Activation of human PXR expressed in human HepG2 (DPX-2) cells after 24 hrs by luciferase reporter gene based luminescent analysis

>  <activity>
0

$$$$
CHEMBL284733
Actelion Java MolfileCreator 2.0

  0  0  0  0  0  0              0 V3000
M  V30 BEGIN CTAB
M  V30 COUNTS 26 28 0 0 0
M  V30 BEGIN ATOM
M  V30 1 Cl 0.0 0.0 0.0 0
M  V30 2 C 0.745 -1.289 0.0 0
M  V30 3 C 2.2352 -1.2772 0.0 0
M  V30 4 C -0.0118 -2.5781 0.0 0
M  V30 5 C 2.9802 -2.5663 0.0 0
M  V30 6 C 2.9802 0.0354 0.0 0 CFG=1
M  V30 7 C 0.7332 -3.8672 0.0 0
M  V30 8 Cl 4.4704 -2.5545 0.0 0
M  V30 9 C 2.2233 -3.8554 0.0 0
M  V30 10 C 4.4704 0.0473 0.0 0
M  V30 11 C 2.2233 1.3482 0.0 0
M  V30 12 N -0.0236 -5.1563 0.0 0
M  V30 13 N 5.9605 0.0591 0.0 0
M  V30 14 C 2.9684 2.6609 0.0 0
M  V30 15 C 0.7095 1.36 0.0 0
M  V30 16 N -1.5374 -5.1445 0.0 0
M  V30 17 C 0.7214 -6.4454 0.0 0
M  V30 18 C 2.2115 3.9737 0.0 0
M  V30 19 C -0.0473 2.6727 0.0 0
M  V30 20 C -2.2943 -6.4336 0.0 0
M  V30 21 O 2.2115 -6.4336 0.0 0
M  V30 22 N -0.0354 -7.7345 0.0 0
M  V30 23 C 0.6977 3.9855 0.0 0
M  V30 24 C -1.5492 -7.7227 0.0 0
M  V30 25 Cl -0.0591 5.2982 0.0 0
M  V30 26 O -2.3061 -9.0118 0.0 0
M  V30 END ATOM
M  V30 BEGIN BOND
M  V30 1 1 1 2
M  V30 2 2 2 3
M  V30 3 1 2 4
M  V30 4 1 3 5
M  V30 5 1 3 6
M  V30 6 2 4 7
M  V30 7 1 5 8
M  V30 8 2 5 9
M  V30 9 1 6 10 CFG=3
M  V30 10 1 6 11
M  V30 11 1 7 12
M  V30 12 3 10 13
M  V30 13 2 11 14
M  V30 14 1 11 15
M  V30 15 1 12 16
M  V30 16 1 12 17
M  V30 17 1 14 18
M  V30 18 2 15 19
M  V30 19 2 16 20
M  V30 20 2 17 21
M  V30 21 1 17 22
M  V30 22 2 18 23
M  V30 23 1 20 24
M  V30 24 1 23 25
M  V30 25 2 24 26
M  V30 26 1 7 9
M  V30 27 1 19 23
M  V30 28 1 22 24
M  V30 END BOND
M  V30 BEGIN COLLECTION
M  V30 MDLV30/STERAC1 ATOMS=(1 6)
M  V30 END COLLECTION
M  V30 END CTAB
M  END
>  <Molecule Name>
CHEMBL284733

>  <smiles_curated>
N#CC(c1ccc(Cl)cc1)c1c(Cl)cc(-n2ncc(=O)[nH]c2=O)cc1Cl

>  <pchembl_value>
4.5

>  <target_organism>
Homo sapiens

>  <standard_type>
EC50

>  <target_pref_name>
Pregnane X receptor

>  <assay_description>
Activation of human PXR expressed in human HepG2 (DPX-2) cells after 24 hrs by luciferase reporter gene based luminescent analysis,Activation of human PXR expressed in human HepG2 (DPX-2) cells assessed as induction of CYP3A4 after 24 hrs by luminescent analysis,Competitive binding affinity to human PXR LBD (111 to 434) by TR-FRET assay

>  <activity>
0

$$$$
CHEMBL242080
Actelion Java MolfileCreator 2.0

  0  0  0  0  0  0              0 V3000
M  V30 BEGIN CTAB
M  V30 COUNTS 12 12 0 0 0
M  V30 BEGIN ATOM
M  V30 1 O 0.0 0.0 0.0 0
M  V30 2 C -0.7581 -1.2912 0.0 0
M  V30 3 C -0.0118 -2.5825 0.0 0
M  V30 4 C -2.2745 -1.2794 0.0 0
M  V30 5 C -0.77 -3.8738 0.0 0
M  V30 6 C 1.4808 -2.5707 0.0 0
M  V30 7 C -3.0327 -2.5707 0.0 0
M  V30 8 C -2.2864 -3.862 0.0 0
M  V30 9 C 1.4689 -4.0633 0.0 0
M  V30 10 C 1.4689 -1.0543 0.0 0
M  V30 11 C 2.9735 -2.5588 0.0 0
M  V30 12 O -3.0445 -5.1532 0.0 0
M  V30 END ATOM
M  V30 BEGIN BOND
M  V30 1 1 1 2
M  V30 2 2 2 3
M  V30 3 1 2 4
M  V30 4 1 3 5
M  V30 5 1 3 6
M  V30 6 2 4 7
M  V30 7 2 5 8
M  V30 8 1 6 9
M  V30 9 1 6 10
M  V30 10 1 6 11
M  V30 11 1 8 12
M  V30 12 1 7 8
M  V30 END BOND
M  V30 END CTAB
M  END
>  <Molecule Name>
CHEMBL242080

>  <smiles_curated>
CC(C)(C)c1cc(O)ccc1O

>  <pchembl_value>
5.3

>  <target_organism>
Homo sapiens

>  <standard_type>
EC50

>  <target_pref_name>
Pregnane X receptor

>  <assay_description>
Activation of human PXR expressed in human HepG2 (DPX-2) cells after 24 hrs by luciferase reporter gene based luminescent analysis,Activation of human PXR expressed in human HepG2 (DPX-2) cells assessed as induction of CYP3A4 after 24 hrs by luminescent analysis

>  <activity>
0

$$$$
CHEMBL4449508
Actelion Java MolfileCreator 2.0

  0  0  0  0  0  0              0 V3000
M  V30 BEGIN CTAB
M  V30 COUNTS 32 36 0 0 0
M  V30 BEGIN ATOM
M  V30 1 F 0.0 0.0 0.0 0
M  V30 2 C 0.9966 -1.1033 0.0 0
M  V30 3 F 2.0999 -0.083 0.0 0
M  V30 4 F -0.1305 -2.0999 0.0 0
M  V30 5 C 1.9932 -2.2067 0.0 0
M  V30 6 C 3.4525 -1.8864 0.0 0
M  V30 7 C 1.5186 -3.6304 0.0 0
M  V30 8 C 4.4491 -2.9898 0.0 0
M  V30 9 C 2.5152 -4.7338 0.0 0
M  V30 10 C 3.9745 -4.4135 0.0 0
M  V30 11 C 4.9711 -5.5169 0.0 0
M  V30 12 O 6.4304 -5.1965 0.0 0
M  V30 13 N 7.427 -6.2999 0.0 0
M  V30 14 C 8.8863 -5.9796 0.0 0
M  V30 15 C 9.8829 -7.083 0.0 0
M  V30 16 N 9.5626 -8.5423 0.0 0
M  V30 17 C 11.366 -6.9169 0.0 0
M  V30 18 C 10.8558 -9.2897 0.0 0
M  V30 19 C 8.4355 -9.5389 0.0 0
M  V30 20 N 11.9711 -8.2813 0.0 0
M  V30 21 C 12.1134 -5.5999 0.0 0
M  V30 22 O 10.5355 -10.749 0.0 0
M  V30 23 C 9.0406 -10.9033 0.0 0
M  V30 24 C 11.3541 -4.283 0.0 0
M  V30 25 C 13.6084 -5.5881 0.0 0
M  V30 26 C 12.1016 -2.966 0.0 0
M  V30 27 C 14.3558 -4.2711 0.0 0
M  V30 28 C 13.5965 -2.9542 0.0 0
M  V30 29 C 11.3423 -1.6491 0.0 0
M  V30 30 C 14.3439 -1.6372 0.0 0
M  V30 31 C 12.0897 -0.3322 0.0 0
M  V30 32 C 13.5846 -0.3203 0.0 0
M  V30 END ATOM
M  V30 BEGIN BOND
M  V30 1 1 1 2
M  V30 2 1 2 3
M  V30 3 1 2 4
M  V30 4 1 2 5
M  V30 5 2 5 6
M  V30 6 1 5 7
M  V30 7 1 6 8
M  V30 8 2 7 9
M  V30 9 2 8 10
M  V30 10 1 10 11
M  V30 11 1 11 12
M  V30 12 1 12 13
M  V30 13 2 13 14
M  V30 14 1 14 15
M  V30 15 1 15 16
M  V30 16 2 15 17
M  V30 17 1 16 18
M  V30 18 1 16 19
M  V30 19 1 17 20
M  V30 20 1 17 21
M  V30 21 1 18 22
M  V30 22 2 19 23
M  V30 23 2 21 24
M  V30 24 1 21 25
M  V30 25 1 24 26
M  V30 26 2 25 27
M  V30 27 1 26 28
M  V30 28 2 26 29
M  V30 29 2 28 30
M  V30 30 1 29 31
M  V30 31 1 30 32
M  V30 32 1 9 10
M  V30 33 2 18 20
M  V30 34 1 22 23
M  V30 35 1 27 28
M  V30 36 2 31 32
M  V30 END BOND
M  V30 END CTAB
M  END
>  <Molecule Name>
CHEMBL4449508

>  <smiles_curated>
FC(F)(F)c1ccc(CO/N=C/c2c(-c3ccc4ccccc4c3)nc3occn23)cc1

>  <pchembl_value>
5.7

>  <target_organism>
Homo sapiens

>  <standard_type>
EC50

>  <target_pref_name>
Pregnane X receptor

>  <assay_description>
Agonist activity at human PXR transfected in human HepG2 cells cotransfected with CYP3A4 incubated for 23 hrs by luciferase reporter gene assay

>  <activity>
0

$$$$
CHEMBL458603
Actelion Java MolfileCreator 2.0

  0  0  0  0  0  0              0 V3000
M  V30 BEGIN CTAB
M  V30 COUNTS 27 30 0 0 0
M  V30 BEGIN ATOM
M  V30 1 Cl 0.0 0.0 0.0 0
M  V30 2 C 0.1415 -1.4739 0.0 0
M  V30 3 C 1.4975 -2.0753 0.0 0
M  V30 4 C -1.0848 -2.3465 0.0 0
M  V30 5 Cl 2.7003 -1.1791 0.0 0
M  V30 6 C 1.639 -3.5493 0.0 0
M  V30 7 C -0.9433 -3.8205 0.0 0
M  V30 8 C 0.4127 -4.4219 0.0 0
M  V30 9 C -2.1696 -4.6931 0.0 0
M  V30 10 O -3.5493 -4.0681 0.0 0
M  V30 11 N -4.7756 -4.9407 0.0 0
M  V30 12 C -6.1553 -4.3158 0.0 0
M  V30 13 C -7.3816 -5.1883 0.0 0
M  V30 14 N -7.3934 -6.6741 0.0 0
M  V30 15 C -8.8202 -4.7167 0.0 0
M  V30 16 C -8.832 -7.1222 0.0 0
M  V30 17 C -6.5208 -7.8769 0.0 0
M  V30 18 N -9.7164 -5.9194 0.0 0
M  V30 19 C -9.2919 -3.2781 0.0 0
M  V30 20 S -8.8438 -8.608 0.0 0
M  V30 21 C -7.417 -9.0796 0.0 0
M  V30 22 C -8.3014 -2.1579 0.0 0
M  V30 23 C -10.7659 -2.9597 0.0 0
M  V30 24 C -8.7731 -0.7193 0.0 0
M  V30 25 C -11.2375 -1.5211 0.0 0
M  V30 26 C -10.247 -0.4009 0.0 0
M  V30 27 Cl -10.7187 1.0376 0.0 0
M  V30 END ATOM
M  V30 BEGIN BOND
M  V30 1 1 1 2
M  V30 2 2 2 3
M  V30 3 1 2 4
M  V30 4 1 3 5
M  V30 5 1 3 6
M  V30 6 2 4 7
M  V30 7 2 6 8
M  V30 8 1 7 9
M  V30 9 1 9 10
M  V30 10 1 10 11
M  V30 11 2 11 12
M  V30 12 1 12 13
M  V30 13 1 13 14
M  V30 14 2 13 15
M  V30 15 1 14 16
M  V30 16 1 14 17
M  V30 17 1 15 18
M  V30 18 1 15 19
M  V30 19 1 16 20
M  V30 20 2 17 21
M  V30 21 2 19 22
M  V30 22 1 19 23
M  V30 23 1 22 24
M  V30 24 2 23 25
M  V30 25 2 24 26
M  V30 26 1 26 27
M  V30 27 1 7 8
M  V30 28 2 16 18
M  V30 29 1 20 21
M  V30 30 1 25 26
M  V30 END BOND
M  V30 END CTAB
M  END
>  <Molecule Name>
CHEMBL458603

>  <smiles_curated>
Clc1ccc(-c2c(/C=N/OCc3ccc(Cl)c(Cl)c3)n3ccsc3n2)cc1

>  <pchembl_value>
6.0

>  <target_organism>
Homo sapiens

>  <standard_type>
EC50

>  <target_pref_name>
Pregnane X receptor

>  <assay_description>
Agonist activity at human PXR transfected in human HepG2 cells cotransfected with CYP3A4 incubated for 23 hrs by luciferase reporter gene assay

>  <activity>
0

$$$$
CHEMBL4115190
Actelion Java MolfileCreator 2.0

  0  0  0  0  0  0              0 V3000
M  V30 BEGIN CTAB
M  V30 COUNTS 31 33 0 0 0
M  V30 BEGIN ATOM
M  V30 1 S 0.0 0.0 0.0 0
M  V30 2 O -1.1837 -0.7247 0.0 0
M  V30 3 O 1.4494 0.4831 0.0 0
M  V30 4 C 0.4589 -1.4494 0.0 0
M  V30 5 C -0.4831 1.4736 0.0 0 CFG=1
M  V30 6 C 1.9567 -1.7635 0.0 0
M  V30 7 C -0.5797 -2.5848 0.0 0
M  V30 8 C -1.9084 0.8575 0.0 0
M  V30 9 C 1.0146 1.8118 0.0 0
M  V30 10 C -1.2682 2.8264 0.0 0
M  V30 11 C 2.4157 -3.2129 0.0 0
M  V30 12 C -0.1207 -4.0343 0.0 0
M  V30 13 C -3.1646 1.7755 0.0 0
M  V30 14 C -2.0775 -0.6643 0.0 0
M  V30 15 N 1.1595 3.3579 0.0 0
M  V30 16 C -0.2536 3.986 0.0 0
M  V30 17 C 1.3769 -4.3483 0.0 0
M  V30 18 C -4.5899 1.1595 0.0 0
M  V30 19 C -3.5028 -1.2803 0.0 0
M  V30 20 F 1.8359 -5.7978 0.0 0
M  V30 21 C -4.759 -0.3623 0.0 0
M  V30 22 C -6.1843 -0.9783 0.0 0
M  V30 23 O -5.5683 -2.3795 0.0 0
M  V30 24 C -7.6096 -1.5944 0.0 0
M  V30 25 C -6.8245 0.4469 0.0 0
M  V30 26 F -9.0349 -2.2104 0.0 0
M  V30 27 F -6.9936 -2.9955 0.0 0
M  V30 28 F -8.0928 -0.7972 0.0 0
M  V30 29 F -7.4647 1.8722 0.0 0
M  V30 30 F -7.7063 0.1932 0.0 0
M  V30 31 F -5.6166 1.4132 0.0 0
M  V30 END ATOM
M  V30 BEGIN BOND
M  V30 1 2 1 2
M  V30 2 2 1 3
M  V30 3 1 1 4
M  V30 4 1 5 1 CFG=3
M  V30 5 2 4 6
M  V30 6 1 4 7
M  V30 7 1 5 8
M  V30 8 1 5 9
M  V30 9 1 5 10
M  V30 10 1 6 11
M  V30 11 2 7 12
M  V30 12 2 8 13
M  V30 13 1 8 14
M  V30 14 1 9 15
M  V30 15 1 10 16
M  V30 16 2 11 17
M  V30 17 1 13 18
M  V30 18 2 14 19
M  V30 19 1 17 20
M  V30 20 2 18 21
M  V30 21 1 21 22
M  V30 22 1 22 23
M  V30 23 1 22 24
M  V30 24 1 22 25
M  V30 25 1 24 26
M  V30 26 1 24 27
M  V30 27 1 24 28
M  V30 28 1 25 29
M  V30 29 1 25 30
M  V30 30 1 25 31
M  V30 31 1 12 17
M  V30 32 1 15 16
M  V30 33 1 19 21
M  V30 END BOND
M  V30 BEGIN COLLECTION
M  V30 MDLV30/STEABS ATOMS=(1 5)
M  V30 END COLLECTION
M  V30 END CTAB
M  END
>  <Molecule Name>
CHEMBL4115190

>  <smiles_curated>
O=S(=O)(c1ccc(F)cc1)[C@]1(c2ccc(C(O)(C(F)(F)F)C(F)(F)F)cc2)CCNC1

>  <pchembl_value>
6.28

>  <target_organism>
Homo sapiens

>  <standard_type>
EC50

>  <target_pref_name>
Pregnane X receptor

>  <assay_description>
Transactivation of PXR in human HepG2 cells

>  <activity>
1

$$$$
CHEMBL4447203
Actelion Java MolfileCreator 2.0

  0  0  0  0  0  0              0 V3000
M  V30 BEGIN CTAB
M  V30 COUNTS 31 33 0 0 0
M  V30 BEGIN ATOM
M  V30 1 S 0.0 0.0 0.0 0
M  V30 2 O 1.3281 0.2015 0.0 0
M  V30 3 O -1.506 0.166 0.0 0
M  V30 4 C 0.1423 1.506 0.0 0
M  V30 5 C -0.166 -1.4822 0.0 0
M  V30 6 C -1.0909 2.4072 0.0 0
M  V30 7 C 1.506 2.1345 0.0 0
M  V30 8 C 1.3281 -1.4704 0.0 0
M  V30 9 C -1.6483 -1.1621 0.0 0
M  V30 10 C -0.0237 -2.9645 0.0 0
M  V30 11 C -0.9486 3.9132 0.0 0
M  V30 12 C 1.6483 3.6405 0.0 0
M  V30 13 C 2.0752 -2.763 0.0 0
M  V30 14 C 2.0752 -0.1541 0.0 0
M  V30 15 C -2.4072 -2.4546 0.0 0
M  V30 16 C -1.4111 -3.5693 0.0 0
M  V30 17 C 0.415 4.5417 0.0 0
M  V30 18 C 3.5693 -2.7511 0.0 0
M  V30 19 C 3.5693 -0.1423 0.0 0
M  V30 20 F 0.5573 6.0477 0.0 0
M  V30 21 C 4.3164 -1.4348 0.0 0
M  V30 22 C 5.8106 -1.423 0.0 0
M  V30 23 C 5.7987 0.0948 0.0 0
M  V30 24 C 5.7987 -2.9171 0.0 0
M  V30 25 C 7.3047 -1.4111 0.0 0
M  V30 26 F 5.7868 1.6127 0.0 0
M  V30 27 F 7.2929 0.1067 0.0 0
M  V30 28 F 4.3283 0.4743 0.0 0
M  V30 29 F 5.7868 -4.4113 0.0 0
M  V30 30 F 7.2929 -2.9053 0.0 0
M  V30 31 F 4.3283 -3.2729 0.0 0
M  V30 END ATOM
M  V30 BEGIN BOND
M  V30 1 2 1 2
M  V30 2 2 1 3
M  V30 3 1 1 4
M  V30 4 1 1 5
M  V30 5 2 4 6
M  V30 6 1 4 7
M  V30 7 1 5 8
M  V30 8 1 5 9
M  V30 9 1 5 10
M  V30 10 1 6 11
M  V30 11 2 7 12
M  V30 12 2 8 13
M  V30 13 1 8 14
M  V30 14 1 9 15
M  V30 15 1 10 16
M  V30 16 2 11 17
M  V30 17 1 13 18
M  V30 18 2 14 19
M  V30 19 1 17 20
M  V30 20 2 18 21
M  V30 21 1 21 22
M  V30 22 1 22 23
M  V30 23 1 22 24
M  V30 24 1 22 25
M  V30 25 1 23 26
M  V30 26 1 23 27
M  V30 27 1 23 28
M  V30 28 1 24 29
M  V30 29 1 24 30
M  V30 30 1 24 31
M  V30 31 1 12 17
M  V30 32 1 15 16
M  V30 33 1 19 21
M  V30 END BOND
M  V30 END CTAB
M  END
>  <Molecule Name>
CHEMBL4447203

>  <smiles_curated>
CC(c1ccc(C2(S(=O)(=O)c3ccc(F)cc3)CCCC2)cc1)(C(F)(F)F)C(F)(F)F

>  <pchembl_value>
6.12

>  <target_organism>
Homo sapiens

>  <standard_type>
EC50

>  <target_pref_name>
Pregnane X receptor

>  <assay_description>
Transactivation of PXR in human HepG2 cells

>  <activity>
1

$$$$
CHEMBL4061793
Actelion Java MolfileCreator 2.0

  0  0  0  0  0  0              0 V3000
M  V30 BEGIN CTAB
M  V30 COUNTS 27 30 0 0 0
M  V30 BEGIN ATOM
M  V30 1 Cl 0.0 0.0 0.0 0
M  V30 2 C 1.099 -0.9927 0.0 0
M  V30 3 C 0.78 -2.4463 0.0 0
M  V30 4 C 2.5172 -0.52 0.0 0
M  V30 5 N -0.6618 -2.8954 0.0 0
M  V30 6 C 1.8791 -3.4391 0.0 0
M  V30 7 C 3.6163 -1.5127 0.0 0
M  V30 8 C -1.7845 -1.8791 0.0 0
M  V30 9 C 3.2972 -2.9663 0.0 0
M  V30 10 S 5.0345 -1.04 0.0 0
M  V30 11 C -3.2263 -2.3281 0.0 0
M  V30 12 F 4.3963 -3.9591 0.0 0
M  V30 13 O 5.4836 -2.4581 0.0 0
M  V30 14 O 4.5618 0.4018 0.0 0
M  V30 15 N 6.4527 -0.5672 0.0 0
M  V30 16 N -4.6682 -2.7772 0.0 0
M  V30 17 C -2.3518 -3.5336 0.0 0
M  V30 18 C -3.2382 -0.8154 0.0 0
M  V30 19 C 6.7482 0.91 0.0 0
M  V30 20 C -4.68 -4.2663 0.0 0
M  V30 21 C -5.5664 -1.5481 0.0 0
M  V30 22 C -3.25 -4.7391 0.0 0
M  V30 23 C -4.68 -0.3427 0.0 0
M  V30 24 S 8.1073 1.5363 0.0 0
M  V30 25 N 5.7318 2.0327 0.0 0
M  V30 26 C 7.9418 3.0372 0.0 0
M  V30 27 C 6.4764 3.3445 0.0 0
M  V30 END ATOM
M  V30 BEGIN BOND
M  V30 1 1 1 2
M  V30 2 2 2 3
M  V30 3 1 2 4
M  V30 4 1 3 5
M  V30 5 1 3 6
M  V30 6 2 4 7
M  V30 7 1 5 8
M  V30 8 2 6 9
M  V30 9 1 7 10
M  V30 10 1 8 11
M  V30 11 1 9 12
M  V30 12 2 10 13
M  V30 13 2 10 14
M  V30 14 1 10 15
M  V30 15 1 11 16
M  V30 16 1 11 17
M  V30 17 1 11 18
M  V30 18 1 15 19
M  V30 19 1 16 20
M  V30 20 1 16 21
M  V30 21 1 17 22
M  V30 22 1 18 23
M  V30 23 1 19 24
M  V30 24 2 19 25
M  V30 25 1 24 26
M  V30 26 1 25 27
M  V30 27 1 7 9
M  V30 28 1 20 22
M  V30 29 1 21 23
M  V30 30 2 26 27
M  V30 END BOND
M  V30 END CTAB
M  END
>  <Molecule Name>
CHEMBL4061793

>  <smiles_curated>
O=S(=O)(Nc1nccs1)c1cc(Cl)c(NCC23CCCN2CCC3)cc1F

>  <pchembl_value>
4.8

>  <target_organism>
Homo sapiens

>  <standard_type>
EC50

>  <target_pref_name>
Pregnane X receptor

>  <assay_description>
Activation of PXR (unknown origin)

>  <activity>
0

$$$$
CHEMBL4555738
Actelion Java MolfileCreator 2.0

  0  0  0  0  0  0              0 V3000
M  V30 BEGIN CTAB
M  V30 COUNTS 31 33 0 0 0
M  V30 BEGIN ATOM
M  V30 1 Cl 0.0 0.0 0.0 0
M  V30 2 C -0.6411 1.4273 0.0 0
M  V30 3 C 0.762 2.0684 0.0 0
M  V30 4 C -2.0684 0.8104 0.0 0
M  V30 5 C -1.2822 2.8547 0.0 0
M  V30 6 C 0.9072 3.6168 0.0 0
M  V30 7 C 1.9959 1.1733 0.0 0
M  V30 8 F -3.4958 0.1935 0.0 0
M  V30 9 F -1.4515 -0.5927 0.0 0
M  V30 10 F -2.5523 1.6088 0.0 0
M  V30 11 F -1.9233 4.2821 0.0 0
M  V30 12 F -2.1652 2.6007 0.0 0
M  V30 13 F -0.0725 3.8224 0.0 0
M  V30 14 C 2.3104 4.2579 0.0 0
M  V30 15 C 3.399 1.8144 0.0 0
M  V30 16 C 3.5442 3.3628 0.0 0
M  V30 17 C 4.9474 4.0039 0.0 0
M  V30 18 S 5.4071 2.5523 0.0 0
M  V30 19 C 4.1611 5.3587 0.0 0
M  V30 20 C 6.4473 4.3426 0.0 0
M  V30 21 O 4.2216 1.8265 0.0 0
M  V30 22 O 6.8586 3.0362 0.0 0
M  V30 23 C 5.8667 1.1007 0.0 0
M  V30 24 C 5.1772 6.5199 0.0 0
M  V30 25 C 6.5925 5.8909 0.0 0
M  V30 26 C 7.3667 0.7862 0.0 0
M  V30 27 C 4.8264 -0.0362 0.0 0
M  V30 28 C 7.8263 -0.6653 0.0 0
M  V30 29 C 5.2861 -1.4878 0.0 0
M  V30 30 C 6.786 -1.8023 0.0 0
M  V30 31 F 7.2457 -3.2539 0.0 0
M  V30 END ATOM
M  V30 BEGIN BOND
M  V30 1 1 1 2
M  V30 2 1 2 3
M  V30 3 1 2 4
M  V30 4 1 2 5
M  V30 5 2 3 6
M  V30 6 1 3 7
M  V30 7 1 4 8
M  V30 8 1 4 9
M  V30 9 1 4 10
M  V30 10 1 5 11
M  V30 11 1 5 12
M  V30 12 1 5 13
M  V30 13 1 6 14
M  V30 14 2 7 15
M  V30 15 2 14 16
M  V30 16 1 16 17
M  V30 17 1 17 18
M  V30 18 1 17 19
M  V30 19 1 17 20
M  V30 20 2 18 21
M  V30 21 2 18 22
M  V30 22 1 18 23
M  V30 23 1 19 24
M  V30 24 1 20 25
M  V30 25 2 23 26
M  V30 26 1 23 27
M  V30 27 1 26 28
M  V30 28 2 27 29
M  V30 29 2 28 30
M  V30 30 1 30 31
M  V30 31 1 15 16
M  V30 32 1 24 25
M  V30 33 1 29 30
M  V30 END BOND
M  V30 END CTAB
M  END
>  <Molecule Name>
CHEMBL4555738

>  <smiles_curated>
O=S(=O)(c1ccc(F)cc1)C1(c2ccc(C(Cl)(C(F)(F)F)C(F)(F)F)cc2)CCCC1

>  <pchembl_value>
6.64

>  <target_organism>
Homo sapiens

>  <standard_type>
EC50

>  <target_pref_name>
Pregnane X receptor

>  <assay_description>
Transactivation of PXR in human HepG2 cells

>  <activity>
1

$$$$
CHEMBL4457973
Actelion Java MolfileCreator 2.0

  0  0  0  0  0  0              0 V3000
M  V30 BEGIN CTAB
M  V30 COUNTS 26 28 0 0 0
M  V30 BEGIN ATOM
M  V30 1 Cl 0.0 0.0 0.0 0
M  V30 2 C 0.7442 1.3113 0.0 0
M  V30 3 C 2.2328 1.3231 0.0 0
M  V30 4 C -0.0118 2.6226 0.0 0
M  V30 5 N 2.977 0.0354 0.0 0
M  V30 6 C 2.977 2.6344 0.0 0
M  V30 7 C 0.7324 3.934 0.0 0
M  V30 8 C 2.221 -1.2522 0.0 0 CFG=2
M  V30 9 C 2.221 3.9458 0.0 0
M  V30 10 S -0.0236 5.2453 0.0 0
M  V30 11 C 2.9652 -2.5399 0.0 0
M  V30 12 C 0.7088 -1.2404 0.0 0
M  V30 13 F 2.9652 5.2571 0.0 0
M  V30 14 O -1.3349 4.501 0.0 0
M  V30 15 O 1.264 6.0014 0.0 0
M  V30 16 N -0.7797 6.5566 0.0 0
M  V30 17 C 4.4538 -2.5281 0.0 0
M  V30 18 C 2.2091 -3.8276 0.0 0
M  V30 19 C -0.0354 7.868 0.0 0
M  V30 20 N 5.198 -3.8158 0.0 0
M  V30 21 C 2.9534 -5.1153 0.0 0
M  V30 22 S 1.4412 8.0334 0.0 0
M  V30 23 N -0.6615 9.2502 0.0 0
M  V30 24 C 4.442 -5.1035 0.0 0
M  V30 25 C 1.7366 9.5101 0.0 0
M  V30 26 C 0.4371 10.2662 0.0 0
M  V30 END ATOM
M  V30 BEGIN BOND
M  V30 1 1 1 2
M  V30 2 2 2 3
M  V30 3 1 2 4
M  V30 4 1 3 5
M  V30 5 1 3 6
M  V30 6 2 4 7
M  V30 7 1 8 5 CFG=3
M  V30 8 2 6 9
M  V30 9 1 7 10
M  V30 10 1 8 11
M  V30 11 1 8 12
M  V30 12 1 9 13
M  V30 13 2 10 14
M  V30 14 2 10 15
M  V30 15 1 10 16
M  V30 16 2 11 17
M  V30 17 1 11 18
M  V30 18 1 16 19
M  V30 19 1 17 20
M  V30 20 2 18 21
M  V30 21 1 19 22
M  V30 22 2 19 23
M  V30 23 2 20 24
M  V30 24 1 22 25
M  V30 25 1 23 26
M  V30 26 1 7 9
M  V30 27 1 21 24
M  V30 28 2 25 26
M  V30 END BOND
M  V30 BEGIN COLLECTION
M  V30 MDLV30/STEABS ATOMS=(1 8)
M  V30 END COLLECTION
M  V30 END CTAB
M  END
>  <Molecule Name>
CHEMBL4457973

>  <smiles_curated>
C[C@H](Nc1cc(F)c(S(=O)(=O)Nc2nccs2)cc1Cl)c1cccnc1

>  <pchembl_value>
5.52

>  <target_organism>
Homo sapiens

>  <standard_type>
EC50

>  <target_pref_name>
Pregnane X receptor

>  <assay_description>
Agonist activity at PXR in human DPX2 cells after 24 hrs by luciferase reporter gene assay

>  <activity>
0

$$$$
CHEMBL2004756
Actelion Java MolfileCreator 2.0

  0  0  0  0  0  0              0 V3000
M  V30 BEGIN CTAB
M  V30 COUNTS 29 31 0 0 0
M  V30 BEGIN ATOM
M  V30 1 O 0.0 0.0 0.0 0
M  V30 2 C 0.7461 -1.2909 0.0 0
M  V30 3 N 2.2385 -1.2791 0.0 0
M  V30 4 C -0.0118 -2.5819 0.0 0
M  V30 5 N 2.9846 0.0355 0.0 0
M  V30 6 C 0.7343 -3.8729 0.0 0
M  V30 7 C -1.5278 -2.5701 0.0 0
M  V30 8 C 4.477 0.0473 0.0 0
M  V30 9 C -0.0236 -5.1639 0.0 0
M  V30 10 C -2.2858 -3.8611 0.0 0
M  V30 11 C 5.2232 1.362 0.0 0
M  V30 12 N 0.7224 -6.4549 0.0 0
M  V30 13 C -1.5397 -5.1521 0.0 0
M  V30 14 C 6.7155 1.3739 0.0 0
M  V30 15 C 4.4651 2.6767 0.0 0
M  V30 16 C -0.0355 -7.7459 0.0 0
M  V30 17 C 7.4617 2.6885 0.0 0
M  V30 18 C 5.2113 3.9914 0.0 0
M  V30 19 O -1.5515 -7.7341 0.0 0
M  V30 20 C 0.7106 -9.0369 0.0 0
M  V30 21 O 8.954 2.7004 0.0 0
M  V30 22 C 6.7037 4.0032 0.0 0
M  V30 23 C -0.0473 -10.3279 0.0 0
M  V30 24 C 2.2029 -9.0251 0.0 0
M  V30 25 C 9.7002 1.4094 0.0 0
M  V30 26 O 7.4498 5.3179 0.0 0
M  V30 27 C 0.6987 -11.6189 0.0 0
M  V30 28 C 2.9491 -10.3161 0.0 0
M  V30 29 C 2.1911 -11.6071 0.0 0
M  V30 END ATOM
M  V30 BEGIN BOND
M  V30 1 2 1 2
M  V30 2 1 2 3
M  V30 3 1 2 4
M  V30 4 1 3 5
M  V30 5 2 4 6
M  V30 6 1 4 7
M  V30 7 2 5 8
M  V30 8 1 6 9
M  V30 9 2 7 10
M  V30 10 1 8 11
M  V30 11 1 9 12
M  V30 12 2 9 13
M  V30 13 2 11 14
M  V30 14 1 11 15
M  V30 15 1 12 16
M  V30 16 1 14 17
M  V30 17 2 15 18
M  V30 18 2 16 19
M  V30 19 1 16 20
M  V30 20 1 17 21
M  V30 21 2 17 22
M  V30 22 2 20 23
M  V30 23 1 20 24
M  V30 24 1 21 25
M  V30 25 1 22 26
M  V30 26 1 23 27
M  V30 27 2 24 28
M  V30 28 2 27 29
M  V30 29 1 10 13
M  V30 30 1 18 22
M  V30 31 1 28 29
M  V30 END BOND
M  V30 END CTAB
M  END
>  <Molecule Name>
CHEMBL2004756

>  <smiles_curated>
COc1cc(/C=N/NC(=O)c2cccc(NC(=O)c3ccccc3)c2)ccc1O

>  <pchembl_value>
4.12

>  <target_organism>
Homo sapiens

>  <standard_type>
EC50

>  <target_pref_name>
Pregnane X receptor

>  <assay_description>
PUBCHEM_BIOASSAY: Luminescence-based counterscreen for activators of the Aryl Hydrocarbon Receptor (AHR): cell-based high throughput dose response screening assay for activators of the Pregnane X Receptor (PXR). (Class of assay: confirmatory) [Related pubchem assays: 2796 (Primary screen (AHR activators in singlicate)), 2845 (Confirmation screen (AHR activators in triplicate)), 434939 (Counterscreen (PXR activators in triplicate)), 2804 (Summary (AHR activators))]

>  <activity>
0

$$$$
CHEMBL1200402
Actelion Java MolfileCreator 2.0

  0  0  0  0  0  0              0 V3000
M  V30 BEGIN CTAB
M  V30 COUNTS 28 29 0 0 0
M  V30 BEGIN ATOM
M  V30 1 Cl 0.0 0.0 0.0 0
M  V30 2 C 0.9944 -0.1091 0.0 0
M  V30 3 C 1.7584 -1.4309 0.0 0
M  V30 4 C 1.7584 1.2369 0.0 0
M  V30 5 C 3.2863 -1.4188 0.0 0
M  V30 6 C 0.9822 -2.7528 0.0 0 CFG=2
M  V30 7 C 3.2863 1.249 0.0 0
M  V30 8 C 4.0503 -0.0727 0.0 0
M  V30 9 C 1.7462 -4.0746 0.0 0
M  V30 10 C -0.5699 -2.7406 0.0 0
M  V30 11 C 0.9701 -5.3964 0.0 0
M  V30 12 C 3.2742 -4.0625 0.0 0
M  V30 13 C -1.346 -4.0625 0.0 0
M  V30 14 C -1.346 -1.3945 0.0 0
M  V30 15 N -0.582 -5.3843 0.0 0
M  V30 16 C 1.7341 -6.7183 0.0 0
M  V30 17 O 4.0382 -2.7164 0.0 0
M  V30 18 O 4.0382 -5.3843 0.0 0
M  V30 19 C -2.8983 -4.0503 0.0 0
M  V30 20 O -0.958 -0.4486 0.0 0
M  V30 21 O -2.8983 -1.3824 0.0 0
M  V30 22 O 0.958 -8.0401 0.0 0
M  V30 23 C 5.5662 -5.3722 0.0 0
M  V30 24 C -3.6744 -0.0363 0.0 0
M  V30 25 C 1.722 -9.3619 0.0 0
M  V30 26 C 6.3302 -6.694 0.0 0
M  V30 27 C 0.9459 -10.6838 0.0 0
M  V30 28 N 1.7098 -12.0056 0.0 0
M  V30 END ATOM
M  V30 BEGIN BOND
M  V30 1 1 1 2
M  V30 2 2 2 3
M  V30 3 1 2 4
M  V30 4 1 3 5
M  V30 5 1 6 3 CFG=3
M  V30 6 2 4 7
M  V30 7 2 5 8
M  V30 8 1 6 9
M  V30 9 1 6 10
M  V30 10 2 9 11
M  V30 11 1 9 12
M  V30 12 2 10 13
M  V30 13 1 10 14
M  V30 14 1 11 15
M  V30 15 1 11 16
M  V30 16 2 12 17
M  V30 17 1 12 18
M  V30 18 1 13 19
M  V30 19 2 14 20
M  V30 20 1 14 21
M  V30 21 1 16 22
M  V30 22 1 18 23
M  V30 23 1 21 24
M  V30 24 1 22 25
M  V30 25 1 23 26
M  V30 26 1 25 27
M  V30 27 1 27 28
M  V30 28 1 7 8
M  V30 29 1 13 15
M  V30 END BOND
M  V30 BEGIN COLLECTION
M  V30 MDLV30/STERAC1 ATOMS=(1 6)
M  V30 END COLLECTION
M  V30 END CTAB
M  END
>  <Molecule Name>
CHEMBL1200402

>  <smiles_curated>
CCOC(=O)C1=C(COCCN)NC(C)=C(C(=O)OC)C1c1ccccc1Cl

>  <pchembl_value>
4.5

>  <target_organism>
Homo sapiens

>  <standard_type>
EC50

>  <target_pref_name>
Pregnane X receptor

>  <assay_description>
Activation of human PXR expressed in human HepG2 (DPX-2) cells after 24 hrs by luciferase reporter gene based luminescent analysis,Activation of human PXR expressed in human HepG2 (DPX-2) cells assessed as induction of CYP3A4 after 24 hrs by luminescent analysis,Competitive binding affinity to human PXR LBD (111 to 434) by TR-FRET assay

>  <activity>
0

$$$$
CHEMBL300555
Actelion Java MolfileCreator 2.0

  0  0  0  0  0  0              0 V3000
M  V30 BEGIN CTAB
M  V30 COUNTS 28 32 0 0 0
M  V30 BEGIN ATOM
M  V30 1 O 0.0 0.0 0.0 0
M  V30 2 C 1.4502 0.3183 0.0 0
M  V30 3 N 2.5467 -0.672 0.0 0
M  V30 4 C 2.0515 1.6978 0.0 0
M  V30 5 C 3.8318 0.0825 0.0 0
M  V30 6 N 3.5253 1.5563 0.0 0
M  V30 7 C 2.7943 3.0065 0.0 0
M  V30 8 C 0.5423 1.7096 0.0 0
M  V30 9 C 4.5157 2.6764 0.0 0
M  V30 10 C 2.0397 4.3152 0.0 0
M  V30 11 C -0.2122 3.0183 0.0 0
M  V30 12 C 5.9659 2.3816 0.0 0
M  V30 13 C 4.044 4.1148 0.0 0
M  V30 14 N 0.5305 4.327 0.0 0
M  V30 15 C 6.9563 3.5017 0.0 0
M  V30 16 C 5.0344 5.2349 0.0 0
M  V30 17 C -0.224 5.6357 0.0 0
M  V30 18 C 6.4847 4.9401 0.0 0
M  V30 19 C 0.5187 6.9445 0.0 0 CFG=2
M  V30 20 O -0.2358 8.2532 0.0 0
M  V30 21 C 2.0043 6.9563 0.0 0
M  V30 22 C 0.5069 9.5619 0.0 0
M  V30 23 O 2.7471 8.265 0.0 0
M  V30 24 C 1.9925 9.5737 0.0 0
M  V30 25 C -0.2475 10.8707 0.0 0
M  V30 26 C 2.7353 10.8825 0.0 0
M  V30 27 C 0.4951 12.1794 0.0 0
M  V30 28 C 1.9807 12.1912 0.0 0
M  V30 END ATOM
M  V30 BEGIN BOND
M  V30 1 2 1 2
M  V30 2 1 2 3
M  V30 3 1 2 4
M  V30 4 1 3 5
M  V30 5 1 4 6
M  V30 6 1 4 7
M  V30 7 1 4 8
M  V30 8 1 6 9
M  V30 9 1 7 10
M  V30 10 1 8 11
M  V30 11 2 9 12
M  V30 12 1 9 13
M  V30 13 1 10 14
M  V30 14 1 12 15
M  V30 15 2 13 16
M  V30 16 1 14 17
M  V30 17 2 15 18
M  V30 18 1 19 17 CFG=3
M  V30 19 1 19 20
M  V30 20 1 19 21
M  V30 21 1 20 22
M  V30 22 1 21 23
M  V30 23 2 22 24
M  V30 24 1 22 25
M  V30 25 1 24 26
M  V30 26 2 25 27
M  V30 27 2 26 28
M  V30 28 1 5 6
M  V30 29 1 11 14
M  V30 30 1 16 18
M  V30 31 1 23 24
M  V30 32 1 27 28
M  V30 END BOND
M  V30 BEGIN COLLECTION
M  V30 MDLV30/STERAC1 ATOMS=(1 19)
M  V30 END COLLECTION
M  V30 END CTAB
M  END
>  <Molecule Name>
CHEMBL300555

>  <smiles_curated>
O=C1NCN(c2ccccc2)C12CCN(CC1COc3ccccc3O1)CC2

>  <pchembl_value>
4.6

>  <target_organism>
Homo sapiens

>  <standard_type>
EC50

>  <target_pref_name>
Pregnane X receptor

>  <assay_description>
Activation of human PXR expressed in human HepG2 (DPX-2) cells after 24 hrs by luciferase reporter gene based luminescent analysis,Activation of human PXR expressed in human HepG2 (DPX-2) cells assessed as induction of CYP3A4 after 24 hrs by luminescent analysis,Competitive binding affinity to human PXR LBD (111 to 434) by TR-FRET assay

>  <activity>
0

$$$$
CHEMBL4226706
Actelion Java MolfileCreator 2.0

  0  0  0  0  0  0              0 V3000
M  V30 BEGIN CTAB
M  V30 COUNTS 29 31 0 0 0
M  V30 BEGIN ATOM
M  V30 1 F 0.0 0.0 0.0 0
M  V30 2 C 1.4948 0.0118 0.0 0
M  V30 3 C 2.2423 -1.2813 0.0 0
M  V30 4 C 2.2423 1.3287 0.0 0
M  V30 5 N 3.7371 -1.2694 0.0 0
M  V30 6 C 3.7371 1.3406 0.0 0
M  V30 7 C 4.4846 0.0474 0.0 0
M  V30 8 C 5.9794 0.0593 0.0 0 CFG=2
M  V30 9 N 6.7269 -1.2338 0.0 0
M  V30 10 C 6.7269 1.3762 0.0 0
M  V30 11 C 5.9676 -2.527 0.0 0
M  V30 12 O 4.449 -2.5151 0.0 0
M  V30 13 C 6.715 -3.8202 0.0 0
M  V30 14 C 8.2099 -3.8083 0.0 0
M  V30 15 C 5.9557 -5.1134 0.0 0
M  V30 16 C 8.9573 -5.1015 0.0 0
M  V30 17 C 6.7031 -6.4065 0.0 0
M  V30 18 C 10.4522 -5.0896 0.0 0
M  V30 19 C 8.198 -6.3947 0.0 0
M  V30 20 C 5.9438 -7.6997 0.0 0
M  V30 21 N 11.1996 -3.7727 0.0 0
M  V30 22 C 11.1996 -6.3828 0.0 0
M  V30 23 O 5.1845 -8.9929 0.0 0
M  V30 24 C 7.237 -8.4471 0.0 0
M  V30 25 C 4.6269 -6.9404 0.0 0
M  V30 26 C 12.6945 -3.7609 0.0 0
M  V30 27 C 12.6945 -6.3709 0.0 0
M  V30 28 C 13.4419 -5.054 0.0 0
M  V30 29 C 14.9368 -5.0422 0.0 0
M  V30 END ATOM
M  V30 BEGIN BOND
M  V30 1 1 1 2
M  V30 2 2 2 3
M  V30 3 1 2 4
M  V30 4 1 3 5
M  V30 5 2 4 6
M  V30 6 2 5 7
M  V30 7 1 7 8
M  V30 8 1 8 9 CFG=1
M  V30 9 1 8 10
M  V30 10 1 9 11
M  V30 11 2 11 12
M  V30 12 1 11 13
M  V30 13 2 13 14
M  V30 14 1 13 15
M  V30 15 1 14 16
M  V30 16 2 15 17
M  V30 17 1 16 18
M  V30 18 2 16 19
M  V30 19 1 17 20
M  V30 20 2 18 21
M  V30 21 1 18 22
M  V30 22 1 20 23
M  V30 23 1 20 24
M  V30 24 1 20 25
M  V30 25 1 21 26
M  V30 26 2 22 27
M  V30 27 2 26 28
M  V30 28 1 28 29
M  V30 29 1 6 7
M  V30 30 1 17 19
M  V30 31 1 27 28
M  V30 END BOND
M  V30 BEGIN COLLECTION
M  V30 MDLV30/STEABS ATOMS=(1 8)
M  V30 END COLLECTION
M  V30 END CTAB
M  END
>  <Molecule Name>
CHEMBL4226706

>  <smiles_curated>
Cc1ccc(-c2cc(C(=O)N[C@H](C)c3ccc(F)cn3)cc(C(C)(C)O)c2)nc1

>  <pchembl_value>
5.7

>  <target_organism>
Homo sapiens

>  <standard_type>
EC50

>  <target_pref_name>
Pregnane X receptor

>  <assay_description>
Activation of PXR (unknown origin)

>  <activity>
0

$$$$
CHEMBL1369106
Actelion Java MolfileCreator 2.0

  0  0  0  0  0  0              0 V3000
M  V30 BEGIN CTAB
M  V30 COUNTS 23 24 0 0 0
M  V30 BEGIN ATOM
M  V30 1 O 0.0 0.0 0.0 0
M  V30 2 N 1.4948 0.0118 0.0 0 CHG=1
M  V30 3 O 2.2422 1.3287 0.0 0 CHG=-1
M  V30 4 C 2.2422 -1.2812 0.0 0
M  V30 5 C 1.4829 -2.5744 0.0 0
M  V30 6 C 3.737 -1.2694 0.0 0
M  V30 7 N 2.2303 -3.8675 0.0 0
M  V30 8 N -0.0355 -2.5625 0.0 0
M  V30 9 N 4.4844 -2.5625 0.0 0
M  V30 10 N 4.4844 0.0474 0.0 0
M  V30 11 C 3.7251 -3.8556 0.0 0
M  V30 12 C -0.7948 -3.8556 0.0 0
M  V30 13 N 4.4726 -5.1488 0.0 0
M  V30 14 C -0.0474 -5.1488 0.0 0
M  V30 15 C -2.3134 -3.8438 0.0 0
M  V30 16 C 5.9674 -5.1369 0.0 0
M  V30 17 O 1.4473 -5.1369 0.0 0
M  V30 18 C -0.8067 -6.4419 0.0 0
M  V30 19 C -3.0726 -5.1369 0.0 0
M  V30 20 C 6.7148 -6.4301 0.0 0
M  V30 21 C 2.1947 -6.4301 0.0 0
M  V30 22 C -2.3252 -6.4301 0.0 0
M  V30 23 O 8.2096 -6.4182 0.0 0
M  V30 END ATOM
M  V30 BEGIN BOND
M  V30 1 2 1 2
M  V30 2 1 2 3
M  V30 3 1 2 4
M  V30 4 2 4 5
M  V30 5 1 4 6
M  V30 6 1 5 7
M  V30 7 1 5 8
M  V30 8 2 6 9
M  V30 9 1 6 10
M  V30 10 2 7 11
M  V30 11 1 8 12
M  V30 12 1 11 13
M  V30 13 2 12 14
M  V30 14 1 12 15
M  V30 15 1 13 16
M  V30 16 1 14 17
M  V30 17 1 14 18
M  V30 18 2 15 19
M  V30 19 1 16 20
M  V30 20 1 17 21
M  V30 21 2 18 22
M  V30 22 1 20 23
M  V30 23 1 9 11
M  V30 24 1 19 22
M  V30 END BOND
M  V30 END CTAB
M  END
>  <Molecule Name>
CHEMBL1369106

>  <smiles_curated>
COc1ccccc1Nc1nc(NCCO)nc(N)c1[N+](=O)[O-]

>  <pchembl_value>
4.75

>  <target_organism>
Homo sapiens

>  <standard_type>
EC50

>  <target_pref_name>
Pregnane X receptor

>  <assay_description>
PUBCHEM_BIOASSAY: Luminescence-based counterscreen for activators of the Aryl Hydrocarbon Receptor (AHR): cell-based high throughput dose response screening assay for activators of the Pregnane X Receptor (PXR). (Class of assay: confirmatory) [Related pubchem assays: 2796 (Primary screen (AHR activators in singlicate)), 2845 (Confirmation screen (AHR activators in triplicate)), 434939 (Counterscreen (PXR activators in triplicate)), 2804 (Summary (AHR activators))]

>  <activity>
0

$$$$
CHEMBL4210791
Actelion Java MolfileCreator 2.0

  0  0  0  0  0  0              0 V3000
M  V30 BEGIN CTAB
M  V30 COUNTS 30 32 0 0 0
M  V30 BEGIN ATOM
M  V30 1 S 0.0 0.0 0.0 0
M  V30 2 O -1.345 -0.7513 0.0 0
M  V30 3 O 1.3208 0.7755 0.0 0
M  V30 4 N -0.7755 1.345 0.0 0
M  V30 5 C 0.7513 -1.3208 0.0 0
M  V30 6 C -2.3266 1.3572 0.0 0
M  V30 7 C -0.0242 2.6901 0.0 0
M  V30 8 C -0.0242 -2.6417 0.0 0
M  V30 9 C 2.2781 -1.3087 0.0 0
M  V30 10 C -3.1022 2.7023 0.0 0
M  V30 11 C -3.1022 0.0363 0.0 0
M  V30 12 C -0.7997 4.0352 0.0 0
M  V30 13 C 0.727 -3.9625 0.0 0
M  V30 14 C 3.0295 -2.6296 0.0 0
M  V30 15 S -2.3508 4.0474 0.0 0
M  V30 16 C -4.6533 2.7144 0.0 0
M  V30 17 C -4.6533 0.0484 0.0 0
M  V30 18 C 2.2539 -3.9504 0.0 0
M  V30 19 C -5.4288 1.3935 0.0 0
M  V30 20 F 3.0052 -5.2713 0.0 0
M  V30 21 C -6.9799 1.4056 0.0 0
M  V30 22 O -6.992 -0.1211 0.0 0
M  V30 23 C -8.531 1.4178 0.0 0
M  V30 24 C -6.992 2.9567 0.0 0
M  V30 25 F -10.0821 1.4299 0.0 0
M  V30 26 F -8.5432 -0.109 0.0 0
M  V30 27 F -8.6522 2.3266 0.0 0
M  V30 28 F -7.0042 4.5079 0.0 0
M  V30 29 F -5.5136 3.3445 0.0 0
M  V30 30 F -7.9009 3.0779 0.0 0
M  V30 END ATOM
M  V30 BEGIN BOND
M  V30 1 2 1 2
M  V30 2 2 1 3
M  V30 3 1 1 4
M  V30 4 1 1 5
M  V30 5 1 4 6
M  V30 6 1 4 7
M  V30 7 2 5 8
M  V30 8 1 5 9
M  V30 9 2 6 10
M  V30 10 1 6 11
M  V30 11 1 7 12
M  V30 12 1 8 13
M  V30 13 2 9 14
M  V30 14 1 10 15
M  V30 15 1 10 16
M  V30 16 2 11 17
M  V30 17 2 13 18
M  V30 18 2 16 19
M  V30 19 1 18 20
M  V30 20 1 19 21
M  V30 21 1 21 22
M  V30 22 1 21 23
M  V30 23 1 21 24
M  V30 24 1 23 25
M  V30 25 1 23 26
M  V30 26 1 23 27
M  V30 27 1 24 28
M  V30 28 1 24 29
M  V30 29 1 24 30
M  V30 30 1 12 15
M  V30 31 1 14 18
M  V30 32 1 17 19
M  V30 END BOND
M  V30 END CTAB
M  END
>  <Molecule Name>
CHEMBL4210791

>  <smiles_curated>
O=S(=O)(c1ccc(F)cc1)N1CCSc2cc(C(O)(C(F)(F)F)C(F)(F)F)ccc21

>  <pchembl_value>
7.7

>  <target_organism>
Homo sapiens

>  <standard_type>
EC50

>  <target_pref_name>
Pregnane X receptor

>  <assay_description>
Transactivation of PXR in human HepG2 cells by receptor transactivation assay

>  <activity>
1

$$$$
CHEMBL388024
Actelion Java MolfileCreator 2.0

  0  0  0  0  0  0              0 V3000
M  V30 BEGIN CTAB
M  V30 COUNTS 32 33 0 0 0
M  V30 BEGIN ATOM
M  V30 1 S 0.0 0.0 0.0 0
M  V30 2 O -1.3115 -0.7444 0.0 0
M  V30 3 O 1.2879 0.7562 0.0 0
M  V30 4 N 0.7444 -1.2879 0.0 0
M  V30 5 C -0.7562 1.3115 0.0 0
M  V30 6 C -0.0118 -2.5759 0.0 0
M  V30 7 C 2.2332 -1.2761 0.0 0
M  V30 8 C -0.0118 2.6231 0.0 0
M  V30 9 C -2.2686 1.3233 0.0 0
M  V30 10 C -1.5242 -2.564 0.0 0
M  V30 11 C 0.7325 -3.8638 0.0 0
M  V30 12 C 2.9776 -2.564 0.0 0
M  V30 13 C -0.768 3.9347 0.0 0
M  V30 14 C -3.0249 2.6349 0.0 0
M  V30 15 C -2.2804 -3.852 0.0 0
M  V30 16 C -0.0236 -5.1518 0.0 0
M  V30 17 F 3.722 -3.852 0.0 0
M  V30 18 F 4.2655 -1.8078 0.0 0
M  V30 19 F 1.666 -3.3084 0.0 0
M  V30 20 C -2.2804 3.9465 0.0 0
M  V30 21 C -1.536 -5.1399 0.0 0
M  V30 22 C -2.2923 -6.4279 0.0 0 CFG=1
M  V30 23 O -1.0043 -7.1723 0.0 0
M  V30 24 C -3.6038 -5.6717 0.0 0
M  V30 25 C -3.0485 -7.7158 0.0 0
M  V30 26 F -4.9154 -4.9154 0.0 0
M  V30 27 F -3.2021 -4.2183 0.0 0
M  V30 28 F -4.3601 -6.9596 0.0 0
M  V30 29 C -2.3041 -9.0038 0.0 0
M  V30 30 F -1.5597 -10.2917 0.0 0
M  V30 31 F -3.6157 -9.7482 0.0 0
M  V30 32 F -1.0161 -8.2476 0.0 0
M  V30 END ATOM
M  V30 BEGIN BOND
M  V30 1 2 1 2
M  V30 2 2 1 3
M  V30 3 1 1 4
M  V30 4 1 1 5
M  V30 5 1 4 6
M  V30 6 1 4 7
M  V30 7 2 5 8
M  V30 8 1 5 9
M  V30 9 2 6 10
M  V30 10 1 6 11
M  V30 11 1 7 12
M  V30 12 1 8 13
M  V30 13 2 9 14
M  V30 14 1 10 15
M  V30 15 2 11 16
M  V30 16 1 12 17
M  V30 17 1 12 18
M  V30 18 1 12 19
M  V30 19 2 13 20
M  V30 20 2 15 21
M  V30 21 1 21 22
M  V30 22 1 22 23 CFG=1
M  V30 23 1 22 24
M  V30 24 1 22 25
M  V30 25 1 24 26
M  V30 26 1 24 27
M  V30 27 1 24 28
M  V30 28 1 25 29
M  V30 29 1 29 30
M  V30 30 1 29 31
M  V30 31 1 29 32
M  V30 32 1 14 20
M  V30 33 1 16 21
M  V30 END BOND
M  V30 BEGIN COLLECTION
M  V30 MDLV30/STERAC1 ATOMS=(1 22)
M  V30 END COLLECTION
M  V30 END CTAB
M  END
>  <Molecule Name>
CHEMBL388024

>  <smiles_curated>
O=S(=O)(c1ccccc1)N(CC(F)(F)F)c1ccc(C(O)(CC(F)(F)F)C(F)(F)F)cc1

>  <pchembl_value>
6.9

>  <target_organism>
Homo sapiens

>  <standard_type>
EC50

>  <target_pref_name>
Pregnane X receptor

>  <assay_description>
Antagonist activity at human PXR by transient transfection assay

>  <activity>
1

$$$$
CHEMBL4459170
Actelion Java MolfileCreator 2.0

  0  0  0  0  0  0              0 V3000
M  V30 BEGIN CTAB
M  V30 COUNTS 29 31 0 0 0
M  V30 BEGIN ATOM
M  V30 1 S 0.0 0.0 0.0 0
M  V30 2 O 1.2858 0.7549 0.0 0
M  V30 3 O -1.3093 -0.7431 0.0 0
M  V30 4 N -0.7549 1.3093 0.0 0
M  V30 5 C 0.7431 -1.2858 0.0 0
M  V30 6 C -2.2648 1.3211 0.0 0
M  V30 7 C 2.2295 -1.274 0.0 0
M  V30 8 C -0.0117 -2.5716 0.0 0
M  V30 9 N -3.1614 2.548 0.0 0
M  V30 10 C -3.1614 0.1179 0.0 0
M  V30 11 F 2.9726 0.0353 0.0 0
M  V30 12 C 2.9726 -2.5598 0.0 0
M  V30 13 F -1.5217 -2.5598 0.0 0
M  V30 14 C 0.7313 -3.8574 0.0 0
M  V30 15 C -4.6005 2.0997 0.0 0
M  V30 16 S -4.6005 0.5898 0.0 0
M  V30 17 C 2.2177 -3.8456 0.0 0
M  V30 18 N 2.9608 -5.1314 0.0 0
M  V30 19 C 2.2059 -6.4172 0.0 0 CFG=2
M  V30 20 C 0.6959 -6.4054 0.0 0
M  V30 21 C 2.949 -7.703 0.0 0
M  V30 22 C -0.0589 -7.6912 0.0 0
M  V30 23 C -0.0589 -5.096 0.0 0
M  V30 24 F 0.6841 -8.977 0.0 0
M  V30 25 C -1.5689 -7.6794 0.0 0
M  V30 26 C -1.5689 -5.0842 0.0 0
M  V30 27 C -2.3238 -6.37 0.0 0
M  V30 28 C -2.3238 -3.7748 0.0 0
M  V30 29 N -3.0788 -2.4654 0.0 0
M  V30 END ATOM
M  V30 BEGIN BOND
M  V30 1 2 1 2
M  V30 2 2 1 3
M  V30 3 1 1 4
M  V30 4 1 1 5
M  V30 5 1 4 6
M  V30 6 2 5 7
M  V30 7 1 5 8
M  V30 8 1 6 9
M  V30 9 2 6 10
M  V30 10 1 7 11
M  V30 11 1 7 12
M  V30 12 1 8 13
M  V30 13 2 8 14
M  V30 14 2 9 15
M  V30 15 1 10 16
M  V30 16 2 12 17
M  V30 17 1 17 18
M  V30 18 1 19 18 CFG=1
M  V30 19 1 19 20
M  V30 20 1 19 21
M  V30 21 2 20 22
M  V30 22 1 20 23
M  V30 23 1 22 24
M  V30 24 1 22 25
M  V30 25 2 23 26
M  V30 26 2 25 27
M  V30 27 1 26 28
M  V30 28 3 28 29
M  V30 29 1 14 17
M  V30 30 1 15 16
M  V30 31 1 26 27
M  V30 END BOND
M  V30 BEGIN COLLECTION
M  V30 MDLV30/STEABS ATOMS=(1 19)
M  V30 END COLLECTION
M  V30 END CTAB
M  END
>  <Molecule Name>
CHEMBL4459170

>  <smiles_curated>
C[C@H](Nc1cc(F)c(S(=O)(=O)Nc2cscn2)c(F)c1)c1cc(C#N)ccc1F

>  <pchembl_value>
6.2

>  <target_organism>
Homo sapiens

>  <standard_type>
EC50

>  <target_pref_name>
Pregnane X receptor

>  <assay_description>
Agonist activity at PXR in human DPX2 cells after 24 hrs by luciferase reporter gene assay

>  <activity>
1

$$$$
CHEMBL134342
Actelion Java MolfileCreator 2.0

  0  0  0  0  0  0              0 V3000
M  V30 BEGIN CTAB
M  V30 COUNTS 12 12 0 0 0
M  V30 BEGIN ATOM
M  V30 1 S 0.0 0.0 0.0 0
M  V30 2 S -1.4413 0.4725 0.0 0
M  V30 3 C 0.8742 1.2286 0.0 0 CFG=1
M  V30 4 C -1.4531 1.9847 0.0 0
M  V30 5 C -0.0236 2.4573 0.0 0
M  V30 6 C 2.3627 1.2404 0.0 0
M  V30 7 C 3.107 -0.0472 0.0 0
M  V30 8 C 4.5956 -0.0354 0.0 0
M  V30 9 C 5.3399 -1.3231 0.0 0
M  V30 10 C 6.8284 -1.3113 0.0 0
M  V30 11 O 7.5727 0.0 0.0 0
M  V30 12 O 7.5727 -2.599 0.0 0
M  V30 END ATOM
M  V30 BEGIN BOND
M  V30 1 1 1 2
M  V30 2 1 1 3
M  V30 3 1 2 4
M  V30 4 1 3 5
M  V30 5 1 3 6 CFG=1
M  V30 6 1 6 7
M  V30 7 1 7 8
M  V30 8 1 8 9
M  V30 9 1 9 10
M  V30 10 2 10 11
M  V30 11 1 10 12
M  V30 12 1 4 5
M  V30 END BOND
M  V30 BEGIN COLLECTION
M  V30 MDLV30/STEABS ATOMS=(1 3)
M  V30 END COLLECTION
M  V30 END CTAB
M  END
>  <Molecule Name>
CHEMBL134342

>  <smiles_curated>
O=C(O)CCCC[C@@H]1CCSS1

>  <pchembl_value>
5.55

>  <target_organism>
Homo sapiens

>  <standard_type>
EC50

>  <target_pref_name>
Pregnane X receptor

>  <assay_description>
Competitive binding affinity to human PXR LBD (111 to 434) by TR-FRET assay

>  <activity>
0

$$$$
CHEMBL4467477
Actelion Java MolfileCreator 2.0

  0  0  0  0  0  0              0 V3000
M  V30 BEGIN CTAB
M  V30 COUNTS 30 31 0 0 0
M  V30 BEGIN ATOM
M  V30 1 O 0.0 0.0 0.0 0
M  V30 2 C -0.7596 -1.2938 0.0 0
M  V30 3 C -0.7596 1.3175 0.0 0 CFG=1
M  V30 4 C -2.279 -1.2819 0.0 0
M  V30 5 C -0.0118 -2.5876 0.0 0
M  V30 6 C -2.279 1.3294 0.0 0
M  V30 7 C 0.6409 1.8398 0.0 0
M  V30 8 C -1.0326 2.8131 0.0 0
M  V30 9 C -3.0386 -2.5757 0.0 0
M  V30 10 C -3.0386 0.0356 0.0 0
M  V30 11 C -0.7715 -3.8814 0.0 0
M  V30 12 C 1.4837 -2.5757 0.0 0
M  V30 13 C 1.7804 0.8783 0.0 0
M  V30 14 C -2.2908 -3.8695 0.0 0
M  V30 15 C 3.1811 1.4006 0.0 0
M  V30 16 O -3.0505 -5.1634 0.0 0
M  V30 17 C 4.3206 0.4391 0.0 0 CFG=1
M  V30 18 C 4.0476 -1.0326 0.0 0
M  V30 19 C 5.7212 0.9614 0.0 0
M  V30 20 C 5.1871 -1.9941 0.0 0
M  V30 21 C 4.9141 -3.466 0.0 0
M  V30 22 C 6.0536 -4.4274 0.0 0 CFG=1
M  V30 23 C 7.4542 -3.9051 0.0 0
M  V30 24 C 5.7806 -5.8993 0.0 0
M  V30 25 C 8.5938 -4.8666 0.0 0
M  V30 26 C 9.9944 -4.3443 0.0 0
M  V30 27 C 11.1339 -5.3058 0.0 0
M  V30 28 C 10.8609 -6.7777 0.0 0
M  V30 29 C 12.5346 -4.7835 0.0 0
M  V30 30 O 12.0004 -7.7391 0.0 0
M  V30 END ATOM
M  V30 BEGIN BOND
M  V30 1 1 1 2
M  V30 2 1 1 3
M  V30 3 2 2 4
M  V30 4 1 2 5
M  V30 5 1 3 6
M  V30 6 1 3 7
M  V30 7 1 3 8 CFG=3
M  V30 8 1 4 9
M  V30 9 1 4 10
M  V30 10 2 5 11
M  V30 11 1 5 12
M  V30 12 1 7 13
M  V30 13 2 9 14
M  V30 14 1 13 15
M  V30 15 1 14 16
M  V30 16 1 15 17
M  V30 17 1 17 18
M  V30 18 1 17 19 CFG=3
M  V30 19 1 18 20
M  V30 20 1 20 21
M  V30 21 1 21 22
M  V30 22 1 22 23
M  V30 23 1 22 24 CFG=1
M  V30 24 1 23 25
M  V30 25 1 25 26
M  V30 26 1 26 27
M  V30 27 1 27 28
M  V30 28 1 27 29
M  V30 29 1 28 30
M  V30 30 1 6 10
M  V30 31 1 11 14
M  V30 END BOND
M  V30 BEGIN COLLECTION
M  V30 MDLV30/STEABS ATOMS=(3 3 17 22)
M  V30 END COLLECTION
M  V30 END CTAB
M  END
>  <Molecule Name>
CHEMBL4467477

>  <smiles_curated>
Cc1cc(O)cc2c1O[C@](C)(CCC[C@H](C)CCC[C@H](C)CCCC(C)CO)CC2

>  <pchembl_value>
5.8

>  <target_organism>
Homo sapiens

>  <standard_type>
EC50

>  <target_pref_name>
Pregnane X receptor

>  <assay_description>
Agonist activity at His-tagged PXR-LBD/SRC-1p (unknown origin) expressed in Escherichia coli BL21(DE3) by coactivator recruitment based Alpha-screen assay

>  <activity>
0

$$$$
CHEMBL2107430
Actelion Java MolfileCreator 2.0

  0  0  0  0  0  0              0 V3000
M  V30 BEGIN CTAB
M  V30 COUNTS 26 29 0 0 0
M  V30 BEGIN ATOM
M  V30 1 F 0.0 0.0 0.0 0
M  V30 2 C 0.7683 -0.216 0.0 0
M  V30 3 C 2.0769 0.5522 0.0 0
M  V30 4 C 0.7563 -1.7287 0.0 0
M  V30 5 C 3.3854 -0.204 0.0 0
M  V30 6 C 2.0649 2.0889 0.0 0 CFG=1
M  V30 7 C 2.0649 -2.485 0.0 0
M  V30 8 C 3.3734 -1.7167 0.0 0
M  V30 9 N 2.0528 3.6255 0.0 0
M  V30 10 C 3.5775 2.1009 0.0 0
M  V30 11 C 0.5282 2.1009 0.0 0
M  V30 12 C 3.2774 4.5379 0.0 0
M  V30 13 C 0.8043 4.5379 0.0 0
M  V30 14 C 4.3338 0.7923 0.0 0
M  V30 15 C 4.3338 3.4334 0.0 0
M  V30 16 C -0.2401 3.4334 0.0 0
M  V30 17 C -0.2401 0.7923 0.0 0
M  V30 18 N 2.7972 6.0026 0.0 0
M  V30 19 C 1.2605 6.0026 0.0 0
M  V30 20 C 5.8465 0.8043 0.0 0
M  V30 21 C 5.8465 3.4455 0.0 0
M  V30 22 C -1.7767 3.4455 0.0 0
M  V30 23 C -1.7767 0.8043 0.0 0
M  V30 24 C 6.6028 2.1369 0.0 0
M  V30 25 C -2.5451 2.1369 0.0 0
M  V30 26 F 8.1155 2.1489 0.0 0
M  V30 END ATOM
M  V30 BEGIN BOND
M  V30 1 1 1 2
M  V30 2 2 2 3
M  V30 3 1 2 4
M  V30 4 1 3 5
M  V30 5 1 3 6
M  V30 6 2 4 7
M  V30 7 2 5 8
M  V30 8 1 6 9 CFG=1
M  V30 9 1 6 10
M  V30 10 1 6 11
M  V30 11 1 9 12
M  V30 12 1 9 13
M  V30 13 2 10 14
M  V30 14 1 10 15
M  V30 15 2 11 16
M  V30 16 1 11 17
M  V30 17 2 12 18
M  V30 18 2 13 19
M  V30 19 1 14 20
M  V30 20 2 15 21
M  V30 21 1 16 22
M  V30 22 2 17 23
M  V30 23 2 20 24
M  V30 24 2 22 25
M  V30 25 1 24 26
M  V30 26 1 7 8
M  V30 27 1 18 19
M  V30 28 1 21 24
M  V30 29 1 23 25
M  V30 END BOND
M  V30 BEGIN COLLECTION
M  V30 MDLV30/STERAC1 ATOMS=(1 6)
M  V30 END COLLECTION
M  V30 END CTAB
M  END
>  <Molecule Name>
CHEMBL2107430

>  <smiles_curated>
Fc1ccc(C(c2ccccc2)(c2ccccc2F)n2ccnc2)cc1

>  <pchembl_value>
5.21

>  <target_organism>
Homo sapiens

>  <standard_type>
EC50

>  <target_pref_name>
Pregnane X receptor

>  <assay_description>
Agonist activity at PXR (unknown origin) expressed in human HepG2 cells assessed as induction of CYP3A4 transactivation after 16 hrs by luciferase reporter gene assay

>  <activity>
0

$$$$
CHEMBL1411951
Actelion Java MolfileCreator 2.0

  0  0  0  0  0  0              0 V3000
M  V30 BEGIN CTAB
M  V30 COUNTS 20 20 0 0 0
M  V30 BEGIN ATOM
M  V30 1 Cl 0.0 0.0 0.0 0
M  V30 2 C -0.7576 -1.2903 0.0 0
M  V30 3 C -0.0236 -2.5806 0.0 0
M  V30 4 C -2.2728 -1.2784 0.0 0
M  V30 5 C 1.4678 -2.5688 0.0 0
M  V30 6 C -0.7812 -3.8709 0.0 0
M  V30 7 C -3.0304 -2.5688 0.0 0
M  V30 8 O 2.2018 -3.8591 0.0 0
M  V30 9 C 2.2018 -1.2548 0.0 0
M  V30 10 C -2.2965 -3.8591 0.0 0
M  V30 11 Cl -4.5457 -2.5569 0.0 0
M  V30 12 P 3.6934 -3.8472 0.0 0
M  V30 13 Cl 1.4442 0.0591 0.0 0
M  V30 14 O 3.6815 -5.3388 0.0 0
M  V30 15 O 3.6815 -2.332 0.0 0
M  V30 16 O 5.1849 -3.8354 0.0 0
M  V30 17 C 4.9718 -1.5744 0.0 0
M  V30 18 C 5.9189 -2.5214 0.0 0
M  V30 19 C 4.96 -0.0591 0.0 0
M  V30 20 C 7.4104 -2.5096 0.0 0
M  V30 END ATOM
M  V30 BEGIN BOND
M  V30 1 1 1 2
M  V30 2 2 2 3
M  V30 3 1 2 4
M  V30 4 1 3 5
M  V30 5 1 3 6
M  V30 6 2 4 7
M  V30 7 1 5 8
M  V30 8 2 5 9
M  V30 9 2 6 10
M  V30 10 1 7 11
M  V30 11 1 8 12
M  V30 12 1 9 13
M  V30 13 2 12 14
M  V30 14 1 12 15
M  V30 15 1 12 16
M  V30 16 1 15 17
M  V30 17 1 16 18
M  V30 18 1 17 19
M  V30 19 1 18 20
M  V30 20 1 7 10
M  V30 END BOND
M  V30 END CTAB
M  END
>  <Molecule Name>
CHEMBL1411951

>  <smiles_curated>
CCOP(=O)(OCC)O/C(=C/Cl)c1ccc(Cl)cc1Cl

>  <pchembl_value>
5.0

>  <target_organism>
Homo sapiens

>  <standard_type>
EC50

>  <target_pref_name>
Pregnane X receptor

>  <assay_description>
Activation of human PXR expressed in human HepG2 (DPX-2) cells after 24 hrs by luciferase reporter gene based luminescent analysis,Activation of human PXR expressed in human HepG2 (DPX-2) cells assessed as induction of CYP3A4 after 24 hrs by luminescent analysis,Competitive binding affinity to human PXR LBD (111 to 434) by TR-FRET assay

>  <activity>
0

$$$$
CHEMBL496714
Actelion Java MolfileCreator 2.0

  0  0  0  0  0  0              0 V3000
M  V30 BEGIN CTAB
M  V30 COUNTS 33 37 0 0 0
M  V30 BEGIN ATOM
M  V30 1 Cl 0.0 0.0 0.0 0
M  V30 2 C 0.7444 1.3116 0.0 0
M  V30 3 C 2.2334 1.3235 0.0 0
M  V30 4 C -0.0118 2.6233 0.0 0
M  V30 5 C 2.9778 0.0354 0.0 0
M  V30 6 C 2.9778 2.6351 0.0 0
M  V30 7 C 0.7326 3.935 0.0 0
M  V30 8 N 2.3515 -1.3235 0.0 0
M  V30 9 N 4.455 -0.1063 0.0 0
M  V30 10 C 2.2216 3.9468 0.0 0
M  V30 11 N -0.0236 5.2467 0.0 0
M  V30 12 N 3.4505 -2.3161 0.0 0
M  V30 13 C 4.7504 -1.5598 0.0 0
M  V30 14 C 5.4476 1.0162 0.0 0
M  V30 15 C 0.579 6.6293 0.0 0
M  V30 16 C -1.5243 5.4121 0.0 0
M  V30 17 C 6.1094 -2.1625 0.0 0
M  V30 18 N -0.5435 7.6456 0.0 0
M  V30 19 C 2.0325 6.9484 0.0 0
M  V30 20 C -1.8434 6.8893 0.0 0
M  V30 21 C 6.712 -0.7799 0.0 0
M  V30 22 C 5.4831 -3.5214 0.0 0
M  V30 23 C 7.4683 -2.7651 0.0 0
M  V30 24 F 3.486 7.2674 0.0 0
M  V30 25 F 1.7134 8.4255 0.0 0
M  V30 26 F 2.3279 5.4949 0.0 0
M  V30 27 C 8.1892 -0.6144 0.0 0
M  V30 28 C 5.8139 0.449 0.0 0
M  V30 29 C 6.842 -4.1241 0.0 0
M  V30 30 C 8.7918 0.7681 0.0 0
M  V30 31 C 6.4166 1.8316 0.0 0
M  V30 32 C 7.8937 1.997 0.0 0
M  V30 33 Cl 8.4964 3.3796 0.0 0
M  V30 END ATOM
M  V30 BEGIN BOND
M  V30 1 1 1 2
M  V30 2 2 2 3
M  V30 3 1 2 4
M  V30 4 1 3 5
M  V30 5 1 3 6
M  V30 6 2 4 7
M  V30 7 2 5 8
M  V30 8 1 5 9
M  V30 9 2 6 10
M  V30 10 1 7 11
M  V30 11 1 8 12
M  V30 12 1 9 13
M  V30 13 1 9 14
M  V30 14 1 11 15
M  V30 15 1 11 16
M  V30 16 1 13 17
M  V30 17 2 15 18
M  V30 18 1 15 19
M  V30 19 2 16 20
M  V30 20 1 17 21
M  V30 21 1 17 22
M  V30 22 1 17 23
M  V30 23 1 19 24
M  V30 24 1 19 25
M  V30 25 1 19 26
M  V30 26 2 21 27
M  V30 27 1 21 28
M  V30 28 1 22 29
M  V30 29 1 27 30
M  V30 30 2 28 31
M  V30 31 2 30 32
M  V30 32 1 32 33
M  V30 33 1 7 10
M  V30 34 2 12 13
M  V30 35 1 18 20
M  V30 36 1 23 29
M  V30 37 1 31 32
M  V30 END BOND
M  V30 END CTAB
M  END
>  <Molecule Name>
CHEMBL496714

>  <smiles_curated>
Cn1c(-c2ccc(-n3ccnc3C(F)(F)F)cc2Cl)nnc1C1(c2ccc(Cl)cc2)CCC1

>  <pchembl_value>
5.5

>  <target_organism>
Homo sapiens

>  <standard_type>
EC50

>  <target_pref_name>
Pregnane X receptor

>  <assay_description>
Agonist activity at human PXR

>  <activity>
0

$$$$
CHEMBL4467862
Actelion Java MolfileCreator 2.0

  0  0  0  0  0  0              0 V3000
M  V30 BEGIN CTAB
M  V30 COUNTS 29 33 0 0 0
M  V30 BEGIN ATOM
M  V30 1 S 0.0 0.0 0.0 0
M  V30 2 C -1.4359 0.4708 0.0 0
M  V30 3 C -0.0117 -1.483 0.0 0
M  V30 4 C -2.3305 -0.7297 0.0 0
M  V30 5 C -1.4477 -1.9303 0.0 0
M  V30 6 C -3.837 -0.7179 0.0 0 CFG=1
M  V30 7 N -4.5903 0.5885 0.0 0
M  V30 8 C -4.5903 -2.0009 0.0 0 CFG=2
M  V30 9 C -6.0969 0.6002 0.0 0
M  V30 10 C -6.0969 -1.9891 0.0 0 CFG=2
M  V30 11 C -4.1431 -3.4133 0.0 0
M  V30 12 C -6.8502 -0.6826 0.0 0
M  V30 13 C -6.8502 1.9067 0.0 0
M  V30 14 N -6.5677 -3.4015 0.0 0
M  V30 15 C -5.3672 -4.2843 0.0 0
M  V30 16 C -8.3568 -0.6709 0.0 0
M  V30 17 C -8.3568 1.9185 0.0 0
M  V30 18 C -6.1087 3.2132 0.0 0
M  V30 19 C -8.0037 -3.8488 0.0 0
M  V30 20 C -9.1101 0.6355 0.0 0
M  V30 21 C -9.1101 3.225 0.0 0
M  V30 22 C -6.862 4.5197 0.0 0
M  V30 23 O -9.1219 -2.8366 0.0 0
M  V30 24 O -8.3215 -5.2965 0.0 0
M  V30 25 C -8.3686 4.5315 0.0 0
M  V30 26 C -9.7575 -5.7438 0.0 0
M  V30 27 C -9.3102 -7.1562 0.0 0
M  V30 28 C -10.2283 -4.3078 0.0 0
M  V30 29 C -11.1934 -6.1911 0.0 0
M  V30 END ATOM
M  V30 BEGIN BOND
M  V30 1 1 1 2
M  V30 2 1 1 3
M  V30 3 2 2 4
M  V30 4 2 3 5
M  V30 5 1 6 4 CFG=3
M  V30 6 1 6 7
M  V30 7 1 6 8
M  V30 8 1 7 9
M  V30 9 1 8 10
M  V30 10 1 8 11 CFG=1
M  V30 11 2 9 12
M  V30 12 1 9 13
M  V30 13 1 10 14 CFG=1
M  V30 14 1 11 15
M  V30 15 1 12 16
M  V30 16 2 13 17
M  V30 17 1 13 18
M  V30 18 1 14 19
M  V30 19 2 16 20
M  V30 20 1 17 21
M  V30 21 1 18 22
M  V30 22 2 19 23
M  V30 23 1 19 24
M  V30 24 1 21 25
M  V30 25 1 24 26
M  V30 26 1 26 27
M  V30 27 1 26 28
M  V30 28 1 26 29
M  V30 29 1 4 5
M  V30 30 1 10 12
M  V30 31 1 14 15
M  V30 32 1 17 20
M  V30 33 1 22 25
M  V30 END BOND
M  V30 BEGIN COLLECTION
M  V30 MDLV30/STEABS ATOMS=(3 6 8 10)
M  V30 END COLLECTION
M  V30 END CTAB
M  END
>  <Molecule Name>
CHEMBL4467862

>  <smiles_curated>
CC(C)(C)OC(=O)N1CC[C@@H]2[C@@H](c3cscc3)Nc3c(ccc4c3CCCC4)[C@@H]21

>  <pchembl_value>
5.43

>  <target_organism>
Homo sapiens

>  <standard_type>
EC50

>  <target_pref_name>
Pregnane X receptor

>  <assay_description>
Agonist activity at PXR (unknown origin) by AlphaScreen assay

>  <activity>
0

$$$$
CHEMBL113650
Actelion Java MolfileCreator 2.0

  0  0  0  0  0  0              0 V3000
M  V30 BEGIN CTAB
M  V30 COUNTS 22 23 0 0 0
M  V30 BEGIN ATOM
M  V30 1 O 0.0 0.0 0.0 0
M  V30 2 C -0.7521 1.3045 0.0 0
M  V30 3 C -0.7521 -1.281 0.0 0
M  V30 4 C -2.2564 1.3162 0.0 0
M  V30 5 C -0.0117 2.609 0.0 0
M  V30 6 C -3.0086 2.6208 0.0 0
M  V30 7 C -0.7639 3.9135 0.0 0
M  V30 8 C -2.2682 3.9253 0.0 0
M  V30 9 C -3.0203 5.2298 0.0 0
M  V30 10 C -2.2799 6.5343 0.0 0
M  V30 11 C -4.5247 5.2416 0.0 0
M  V30 12 C -3.0321 7.8389 0.0 0
M  V30 13 C -0.7991 6.5461 0.0 0
M  V30 14 C -5.2768 3.9605 0.0 0
M  V30 15 C -2.2917 9.1434 0.0 0
M  V30 16 C -4.5364 7.8506 0.0 0
M  V30 17 C -0.0587 5.2651 0.0 0
M  V30 18 C -3.0438 10.4479 0.0 0
M  V30 19 C -5.2886 9.1551 0.0 0
M  V30 20 C -4.5482 10.4597 0.0 0
M  V30 21 O -5.3003 11.7642 0.0 0
M  V30 22 C -4.5599 13.0687 0.0 0
M  V30 END ATOM
M  V30 BEGIN BOND
M  V30 1 1 1 2
M  V30 2 1 1 3
M  V30 3 2 2 4
M  V30 4 1 2 5
M  V30 5 1 4 6
M  V30 6 2 5 7
M  V30 7 2 6 8
M  V30 8 1 8 9
M  V30 9 2 9 10
M  V30 10 1 9 11
M  V30 11 1 10 12
M  V30 12 1 10 13
M  V30 13 1 11 14
M  V30 14 2 12 15
M  V30 15 1 12 16
M  V30 16 1 13 17
M  V30 17 1 15 18
M  V30 18 2 16 19
M  V30 19 2 18 20
M  V30 20 1 20 21
M  V30 21 1 21 22
M  V30 22 1 7 8
M  V30 23 1 19 20
M  V30 END BOND
M  V30 END CTAB
M  END
>  <Molecule Name>
CHEMBL113650

>  <smiles_curated>
CC/C(=C(/CC)c1ccc(OC)cc1)c1ccc(OC)cc1

>  <pchembl_value>
4.98

>  <target_organism>
Homo sapiens

>  <standard_type>
EC50

>  <target_pref_name>
Pregnane X receptor

>  <assay_description>
Transactivation of full length human PXR transfected in human HepG2 cells after 18 hrs by luciferase reporter assay relative to rifaximin

>  <activity>
0

$$$$
CHEMBL522572
Actelion Java MolfileCreator 2.0

  0  0  0  0  0  0              0 V3000
M  V30 BEGIN CTAB
M  V30 COUNTS 33 38 0 0 0
M  V30 BEGIN ATOM
M  V30 1 Cl 0.0 0.0 0.0 0
M  V30 2 C 1.4869 0.0118 0.0 0
M  V30 3 C 2.2304 1.3217 0.0 0
M  V30 4 C 2.2304 -1.2745 0.0 0
M  V30 5 C 1.4751 2.6316 0.0 0
M  V30 6 C 3.7173 1.3335 0.0 0
M  V30 7 C 3.7173 -1.2627 0.0 0
M  V30 8 N -0.0236 2.7968 0.0 0
M  V30 9 N 2.077 4.0124 0.0 0
M  V30 10 C 4.4608 0.0472 0.0 0
M  V30 11 N 4.4608 -2.549 0.0 0
M  V30 12 N -0.3422 4.272 0.0 0
M  V30 13 C 0.9559 5.0273 0.0 0
M  V30 14 C 3.5285 4.331 0.0 0
M  V30 15 C 3.8354 -3.9062 0.0 0
M  V30 16 C 5.936 -2.6906 0.0 0
M  V30 17 C 1.0975 6.526 0.0 0
M  V30 18 N 4.9329 -4.8975 0.0 0
M  V30 19 C 2.3602 -4.2012 0.0 0
M  V30 20 C 6.231 -4.1422 0.0 0
M  V30 21 C -0.4012 6.6913 0.0 0
M  V30 22 C -0.4012 6.6913 0.0 0
M  V30 23 C 1.2391 8.0248 0.0 0
M  V30 24 C 1.2391 -5.1925 0.0 0
M  V30 25 C 0.9204 -3.7291 0.0 0
M  V30 26 C 7.5881 -4.744 0.0 0
M  V30 27 C -1.0267 8.072 0.0 0
M  V30 28 C -1.2981 5.4875 0.0 0
M  V30 29 C -0.2596 8.19 0.0 0
M  V30 30 C -2.5254 8.2372 0.0 0
M  V30 31 C -2.7968 5.6527 0.0 0
M  V30 32 C -3.4223 7.0335 0.0 0
M  V30 33 Cl -4.9211 7.1987 0.0 0
M  V30 END ATOM
M  V30 BEGIN BOND
M  V30 1 1 1 2
M  V30 2 2 2 3
M  V30 3 1 2 4
M  V30 4 1 3 5
M  V30 5 1 3 6
M  V30 6 2 4 7
M  V30 7 2 5 8
M  V30 8 1 5 9
M  V30 9 2 6 10
M  V30 10 1 7 11
M  V30 11 1 8 12
M  V30 12 1 9 13
M  V30 13 1 9 14
M  V30 14 1 11 15
M  V30 15 1 11 16
M  V30 16 1 13 17
M  V30 17 2 15 18
M  V30 18 1 15 19
M  V30 19 2 16 20
M  V30 20 1 17 21
M  V30 21 1 17 22
M  V30 22 1 17 23
M  V30 23 1 19 24
M  V30 24 1 19 25
M  V30 25 1 20 26
M  V30 26 2 21 27
M  V30 27 1 21 28
M  V30 28 1 22 29
M  V30 29 1 27 30
M  V30 30 2 28 31
M  V30 31 2 30 32
M  V30 32 1 32 33
M  V30 33 1 7 10
M  V30 34 2 12 13
M  V30 35 1 18 20
M  V30 36 1 23 29
M  V30 37 1 24 25
M  V30 38 1 31 32
M  V30 END BOND
M  V30 END CTAB
M  END
>  <Molecule Name>
CHEMBL522572

>  <smiles_curated>
Cc1cn(-c2ccc(-c3nnc(C4(c5ccc(Cl)cc5)CCC4)n3C)c(Cl)c2)c(C2CC2)n1

>  <pchembl_value>
5.89

>  <target_organism>
Homo sapiens

>  <standard_type>
EC50

>  <target_pref_name>
Pregnane X receptor

>  <assay_description>
Agonist activity at human PXR

>  <activity>
0

$$$$
CHEMBL457487
Actelion Java MolfileCreator 2.0

  0  0  0  0  0  0              0 V3000
M  V30 BEGIN CTAB
M  V30 COUNTS 27 30 0 0 0
M  V30 BEGIN ATOM
M  V30 1 Cl 0.0 0.0 0.0 0
M  V30 2 C -1.5025 0.0117 0.0 0
M  V30 3 C -2.2538 1.3147 0.0 0
M  V30 4 C -2.2538 -1.2677 0.0 0
M  V30 5 N -1.5142 2.6177 0.0 0
M  V30 6 C -3.7563 1.3264 0.0 0
M  V30 7 C -3.7563 -1.256 0.0 0
M  V30 8 C -2.2655 3.9207 0.0 0
M  V30 9 C -4.5076 0.0469 0.0 0
M  V30 10 O -3.7681 3.9324 0.0 0
M  V30 11 N -1.526 5.2237 0.0 0
M  V30 12 C -2.2773 6.5267 0.0 0
M  V30 13 C -3.7798 6.5384 0.0 0
M  V30 14 C -1.5377 7.8297 0.0 0
M  V30 15 C -4.5311 7.8414 0.0 0
M  V30 16 C -2.289 9.1327 0.0 0
M  V30 17 N -5.9984 8.1584 0.0 0
M  V30 18 C -3.7916 9.1444 0.0 0
M  V30 19 C -6.1628 9.6492 0.0 0
M  V30 20 N -4.8011 10.2596 0.0 0
M  V30 21 C -4.5076 11.7269 0.0 0
M  V30 22 C -5.6228 12.7365 0.0 0
M  V30 23 C -5.3293 14.2038 0.0 0
M  V30 24 C -7.0549 12.2904 0.0 0
M  V30 25 C -6.4445 15.2133 0.0 0
M  V30 26 C -8.1701 13.2999 0.0 0
M  V30 27 C -7.8766 14.7673 0.0 0
M  V30 END ATOM
M  V30 BEGIN BOND
M  V30 1 1 1 2
M  V30 2 2 2 3
M  V30 3 1 2 4
M  V30 4 1 3 5
M  V30 5 1 3 6
M  V30 6 2 4 7
M  V30 7 1 5 8
M  V30 8 2 6 9
M  V30 9 2 8 10
M  V30 10 1 8 11
M  V30 11 1 11 12
M  V30 12 2 12 13
M  V30 13 1 12 14
M  V30 14 1 13 15
M  V30 15 2 14 16
M  V30 16 1 15 17
M  V30 17 2 15 18
M  V30 18 2 17 19
M  V30 19 1 18 20
M  V30 20 1 20 21
M  V30 21 1 21 22
M  V30 22 2 22 23
M  V30 23 1 22 24
M  V30 24 1 23 25
M  V30 25 2 24 26
M  V30 26 2 25 27
M  V30 27 1 7 9
M  V30 28 1 16 18
M  V30 29 1 19 20
M  V30 30 1 26 27
M  V30 END BOND
M  V30 END CTAB
M  END
>  <Molecule Name>
CHEMBL457487

>  <smiles_curated>
O=C(Nc1ccc2c(c1)ncn2Cc1ccccc1)Nc1ccccc1Cl

>  <pchembl_value>
5.84

>  <target_organism>
Homo sapiens

>  <standard_type>
EC50

>  <target_pref_name>
Pregnane X receptor

>  <assay_description>
Agonist activity at human pregnane X receptor expressed in HGPXR reporter cells

>  <activity>
0

$$$$
CHEMBL1200596
Actelion Java MolfileCreator 2.0

  0  0  0  0  0  0              0 V3000
M  V30 BEGIN CTAB
M  V30 COUNTS 13 14 0 0 0
M  V30 BEGIN ATOM
M  V30 1 Cl 0.0 0.0 0.0 0
M  V30 2 C 0.7421 1.3075 0.0 0
M  V30 3 C -0.0117 2.6151 0.0 0
M  V30 4 C 2.2264 1.3193 0.0 0
M  V30 5 O -1.5196 2.6269 0.0 0
M  V30 6 C 0.7303 3.9227 0.0 0
M  V30 7 C 2.9685 2.6269 0.0 0
M  V30 8 N -0.0235 5.2302 0.0 0
M  V30 9 C 2.2146 3.9344 0.0 0
M  V30 10 Cl 4.4528 2.6386 0.0 0
M  V30 11 C 0.7185 6.5378 0.0 0
M  V30 12 C 2.9567 5.242 0.0 0
M  V30 13 C 2.2028 6.5496 0.0 0
M  V30 END ATOM
M  V30 BEGIN BOND
M  V30 1 1 1 2
M  V30 2 2 2 3
M  V30 3 1 2 4
M  V30 4 1 3 5
M  V30 5 1 3 6
M  V30 6 2 4 7
M  V30 7 2 6 8
M  V30 8 1 6 9
M  V30 9 1 7 10
M  V30 10 1 8 11
M  V30 11 2 9 12
M  V30 12 2 11 13
M  V30 13 1 7 9
M  V30 14 1 12 13
M  V30 END BOND
M  V30 END CTAB
M  END
>  <Molecule Name>
CHEMBL1200596

>  <smiles_curated>
Oc1c(Cl)cc(Cl)c2cccnc12

>  <pchembl_value>
4.4

>  <target_organism>
Homo sapiens

>  <standard_type>
EC50

>  <target_pref_name>
Pregnane X receptor

>  <assay_description>
Activation of human PXR expressed in human HepG2 (DPX-2) cells after 24 hrs by luciferase reporter gene based luminescent analysis

>  <activity>
0

$$$$
CHEMBL4566561
Actelion Java MolfileCreator 2.0

  0  0  0  0  0  0              0 V3000
M  V30 BEGIN CTAB
M  V30 COUNTS 32 33 0 0 0
M  V30 BEGIN ATOM
M  V30 1 O 0.0 0.0 0.0 0
M  V30 2 C 0.747 -1.2925 0.0 0
M  V30 3 C 0.747 1.3163 0.0 0 CFG=1
M  V30 4 C 2.2412 -1.2807 0.0 0
M  V30 5 C -0.0118 -2.5851 0.0 0
M  V30 6 C 2.2412 1.3281 0.0 0
M  V30 7 C 0.9961 2.8104 0.0 0
M  V30 8 C -0.6759 1.838 0.0 0
M  V30 9 C 2.9883 -2.5733 0.0 0
M  V30 10 C 2.9883 0.0355 0.0 0
M  V30 11 C 0.7352 -3.8777 0.0 0
M  V30 12 C -1.5297 -2.5733 0.0 0
M  V30 13 C 2.3954 3.3322 0.0 0
M  V30 14 C 2.2294 -3.8658 0.0 0
M  V30 15 C 4.4825 -2.5614 0.0 0
M  V30 16 C -0.0237 -5.1703 0.0 0
M  V30 17 C 2.6444 4.8264 0.0 0
M  V30 18 O 2.9765 -5.1584 0.0 0
M  V30 19 C 4.0437 5.3482 0.0 0
M  V30 20 C 5.1822 4.3876 0.0 0
M  V30 21 C 4.2928 6.8424 0.0 0
M  V30 22 C 6.5815 4.9094 0.0 0
M  V30 23 C 7.7199 3.9489 0.0 0
M  V30 24 C 9.1192 4.4706 0.0 0
M  V30 25 C 9.3682 5.9648 0.0 0
M  V30 26 C 10.2576 3.5101 0.0 0
M  V30 27 C 10.7675 6.4866 0.0 0
M  V30 28 C 11.0166 7.9808 0.0 0
M  V30 29 C 12.4159 8.5026 0.0 0
M  V30 30 C 13.5543 7.542 0.0 0
M  V30 31 C 12.6649 9.9967 0.0 0
M  V30 32 O 14.9536 8.0638 0.0 0
M  V30 END ATOM
M  V30 BEGIN BOND
M  V30 1 1 1 2
M  V30 2 1 1 3
M  V30 3 2 2 4
M  V30 4 1 2 5
M  V30 5 1 3 6
M  V30 6 1 3 7
M  V30 7 1 3 8 CFG=1
M  V30 8 1 4 9
M  V30 9 1 4 10
M  V30 10 2 5 11
M  V30 11 1 5 12
M  V30 12 1 7 13
M  V30 13 2 9 14
M  V30 14 1 9 15
M  V30 15 1 11 16
M  V30 16 1 13 17
M  V30 17 1 14 18
M  V30 18 1 17 19
M  V30 19 1 19 20
M  V30 20 1 19 21
M  V30 21 1 20 22
M  V30 22 1 22 23
M  V30 23 1 23 24
M  V30 24 1 24 25
M  V30 25 1 24 26
M  V30 26 1 25 27
M  V30 27 1 27 28
M  V30 28 1 28 29
M  V30 29 1 29 30
M  V30 30 1 29 31
M  V30 31 1 30 32
M  V30 32 1 6 10
M  V30 33 1 11 14
M  V30 END BOND
M  V30 BEGIN COLLECTION
M  V30 MDLV30/STEABS ATOMS=(1 3)
M  V30 END COLLECTION
M  V30 END CTAB
M  END
>  <Molecule Name>
CHEMBL4566561

>  <smiles_curated>
Cc1c(C)c2c(CC[C@@](C)(CCCC(C)CCCC(C)CCCC(C)CO)O2)c(C)c1O

>  <pchembl_value>
5.82

>  <target_organism>
Homo sapiens

>  <standard_type>
EC50

>  <target_pref_name>
Pregnane X receptor

>  <assay_description>
Agonist activity at His-tagged PXR-LBD/SRC-1p (unknown origin) expressed in Escherichia coli BL21(DE3) by coactivator recruitment based Alpha-screen assay

>  <activity>
0

$$$$
CHEMBL4584424
Actelion Java MolfileCreator 2.0

  0  0  0  0  0  0              0 V3000
M  V30 BEGIN CTAB
M  V30 COUNTS 35 40 0 0 0
M  V30 BEGIN ATOM
M  V30 1 O 0.0 0.0 0.0 0
M  V30 2 C 0.294 1.4701 0.0 0
M  V30 3 C -1.4936 -0.1411 0.0 0
M  V30 4 N 1.3878 2.4815 0.0 0
M  V30 5 N -1.0114 2.2228 0.0 0
M  V30 6 C -2.117 1.2349 0.0 0
M  V30 7 C 0.7644 3.8576 0.0 0
M  V30 8 C -0.7174 3.6929 0.0 0
M  V30 9 C 1.5054 5.1631 0.0 0
M  V30 10 C -1.7288 4.8103 0.0 0
M  V30 11 C 0.7527 6.4686 0.0 0
M  V30 12 C 2.9873 5.1748 0.0 0
M  V30 13 N -3.199 4.5162 0.0 0
M  V30 14 C 1.4936 7.7741 0.0 0
M  V30 15 C 3.7282 6.4803 0.0 0
M  V30 16 O -4.2104 5.6335 0.0 0
M  V30 17 C 2.9755 7.7858 0.0 0
M  V30 18 C 0.7409 9.0795 0.0 0
M  V30 19 C -5.6806 5.3395 0.0 0
M  V30 20 C 3.7165 9.0913 0.0 0
M  V30 21 C 1.4819 10.385 0.0 0
M  V30 22 C -6.692 6.4568 0.0 0
M  V30 23 C 2.9638 10.3968 0.0 0
M  V30 24 C -6.2451 7.8917 0.0 0
M  V30 25 C -8.1622 6.1628 0.0 0
M  V30 26 C -7.2566 9.009 0.0 0
M  V30 27 C -9.1736 7.2801 0.0 0
M  V30 28 C -8.7267 8.7149 0.0 0
M  V30 29 O -9.7382 9.8323 0.0 0
M  V30 30 C -9.2912 11.2671 0.0 0
M  V30 31 C -7.8446 11.5847 0.0 0
M  V30 32 C -10.3027 12.3844 0.0 0
M  V30 33 C -7.3977 13.0195 0.0 0
M  V30 34 C -9.8558 13.8193 0.0 0
M  V30 35 C -8.4092 14.1368 0.0 0
M  V30 END ATOM
M  V30 BEGIN BOND
M  V30 1 1 1 2
M  V30 2 1 1 3
M  V30 3 2 2 4
M  V30 4 1 2 5
M  V30 5 2 3 6
M  V30 6 1 4 7
M  V30 7 1 5 8
M  V30 8 1 7 9
M  V30 9 1 8 10
M  V30 10 2 9 11
M  V30 11 1 9 12
M  V30 12 2 10 13
M  V30 13 1 11 14
M  V30 14 2 12 15
M  V30 15 1 13 16
M  V30 16 1 14 17
M  V30 17 2 14 18
M  V30 18 1 16 19
M  V30 19 2 17 20
M  V30 20 1 18 21
M  V30 21 1 19 22
M  V30 22 1 20 23
M  V30 23 2 22 24
M  V30 24 1 22 25
M  V30 25 1 24 26
M  V30 26 2 25 27
M  V30 27 2 26 28
M  V30 28 1 28 29
M  V30 29 1 29 30
M  V30 30 2 30 31
M  V30 31 1 30 32
M  V30 32 1 31 33
M  V30 33 2 32 34
M  V30 34 2 33 35
M  V30 35 1 5 6
M  V30 36 2 7 8
M  V30 37 1 15 17
M  V30 38 2 21 23
M  V30 39 1 27 28
M  V30 40 1 34 35
M  V30 END BOND
M  V30 END CTAB
M  END
>  <Molecule Name>
CHEMBL4584424

>  <smiles_curated>
C(=N/OCc1ccc(Oc2ccccc2)cc1)\c1c(-c2ccc3ccccc3c2)nc2occn12

>  <pchembl_value>
5.96

>  <target_organism>
Homo sapiens

>  <standard_type>
EC50

>  <target_pref_name>
Pregnane X receptor

>  <assay_description>
Agonist activity at human PXR transfected in human HepG2 cells cotransfected with CYP3A4 incubated for 23 hrs by luciferase reporter gene assay

>  <activity>
0

$$$$
CHEMBL4217418
Actelion Java MolfileCreator 2.0

  0  0  0  0  0  0              0 V3000
M  V30 BEGIN CTAB
M  V30 COUNTS 31 33 0 0 0
M  V30 BEGIN ATOM
M  V30 1 S 0.0 0.0 0.0 0
M  V30 2 O -0.0121 1.5488 0.0 0
M  V30 3 O -0.0121 -1.5246 0.0 0
M  V30 4 N -1.5488 0.0121 0.0 0
M  V30 5 C 1.5246 0.0121 0.0 0
M  V30 6 C -2.3232 1.3552 0.0 0
M  V30 7 C -2.3232 -1.3068 0.0 0
M  V30 8 C 2.2748 -1.3068 0.0 0
M  V30 9 C 2.2748 1.3552 0.0 0
M  V30 10 C -3.872 1.3673 0.0 0
M  V30 11 C -1.573 2.6983 0.0 0
M  V30 12 C -3.872 -1.2947 0.0 0
M  V30 13 C 3.7994 -1.2947 0.0 0
M  V30 14 C 3.7994 1.3673 0.0 0
M  V30 15 N -4.6464 0.0484 0.0 0
M  V30 16 C -4.6464 2.7104 0.0 0
M  V30 17 C -2.3474 4.0414 0.0 0
M  V30 18 C 4.5496 0.0484 0.0 0
M  V30 19 C -6.1952 0.0605 0.0 0
M  V30 20 C -3.8962 4.0535 0.0 0
M  V30 21 F 6.0742 0.0605 0.0 0
M  V30 22 C -4.6706 5.3966 0.0 0
M  V30 23 O -6.0137 4.6464 0.0 0
M  V30 24 C -5.445 6.7397 0.0 0
M  V30 25 C -3.3517 6.171 0.0 0
M  V30 26 F -6.2194 8.0829 0.0 0
M  V30 27 F -6.7881 5.9895 0.0 0
M  V30 28 F -4.7311 7.2964 0.0 0
M  V30 29 F -2.0328 6.9575 0.0 0
M  V30 30 F -2.299 5.082 0.0 0
M  V30 31 F -3.7147 7.0181 0.0 0
M  V30 END ATOM
M  V30 BEGIN BOND
M  V30 1 2 1 2
M  V30 2 2 1 3
M  V30 3 1 1 4
M  V30 4 1 1 5
M  V30 5 1 4 6
M  V30 6 1 4 7
M  V30 7 2 5 8
M  V30 8 1 5 9
M  V30 9 2 6 10
M  V30 10 1 6 11
M  V30 11 1 7 12
M  V30 12 1 8 13
M  V30 13 2 9 14
M  V30 14 1 10 15
M  V30 15 1 10 16
M  V30 16 2 11 17
M  V30 17 2 13 18
M  V30 18 1 15 19
M  V30 19 2 16 20
M  V30 20 1 18 21
M  V30 21 1 20 22
M  V30 22 1 22 23
M  V30 23 1 22 24
M  V30 24 1 22 25
M  V30 25 1 24 26
M  V30 26 1 24 27
M  V30 27 1 24 28
M  V30 28 1 25 29
M  V30 29 1 25 30
M  V30 30 1 25 31
M  V30 31 1 12 15
M  V30 32 1 14 18
M  V30 33 1 17 20
M  V30 END BOND
M  V30 END CTAB
M  END
>  <Molecule Name>
CHEMBL4217418

>  <smiles_curated>
CN1CCN(S(=O)(=O)c2ccc(F)cc2)c2ccc(C(O)(C(F)(F)F)C(F)(F)F)cc21

>  <pchembl_value>
7.75

>  <target_organism>
Homo sapiens

>  <standard_type>
EC50

>  <target_pref_name>
Pregnane X receptor

>  <assay_description>
Transactivation of PXR in human HepG2 cells by receptor transactivation assay

>  <activity>
1

$$$$
CHEMBL389979
Actelion Java MolfileCreator 2.0

  0  0  0  0  0  0              0 V3000
M  V30 BEGIN CTAB
M  V30 COUNTS 23 24 0 0 0
M  V30 BEGIN ATOM
M  V30 1 S 0.0 0.0 0.0 0
M  V30 2 O -1.3106 -0.7438 0.0 0
M  V30 3 O 1.287 0.7557 0.0 0
M  V30 4 N 0.7438 -1.287 0.0 0
M  V30 5 C -0.7557 1.3106 0.0 0
M  V30 6 C -0.0118 -2.5741 0.0 0
M  V30 7 C 2.2316 -1.2752 0.0 0
M  V30 8 C -0.0118 2.6213 0.0 0
M  V30 9 C -2.2671 1.3224 0.0 0
M  V30 10 C -1.5232 -2.5622 0.0 0
M  V30 11 C 0.732 -3.8611 0.0 0
M  V30 12 C 2.9755 -2.5622 0.0 0
M  V30 13 C -0.7675 3.932 0.0 0
M  V30 14 C -3.0228 2.6331 0.0 0
M  V30 15 C -2.2789 -3.8493 0.0 0
M  V30 16 C -0.0236 -5.1482 0.0 0
M  V30 17 F 3.7194 -3.8493 0.0 0
M  V30 18 F 4.2626 -1.8065 0.0 0
M  V30 19 F 1.6649 -3.3061 0.0 0
M  V30 20 C -2.2789 3.9438 0.0 0
M  V30 21 C -1.535 -5.1364 0.0 0
M  V30 22 C -2.2907 -6.4234 0.0 0
M  V30 23 O -3.8021 -6.4116 0.0 0
M  V30 END ATOM
M  V30 BEGIN BOND
M  V30 1 2 1 2
M  V30 2 2 1 3
M  V30 3 1 1 4
M  V30 4 1 1 5
M  V30 5 1 4 6
M  V30 6 1 4 7
M  V30 7 2 5 8
M  V30 8 1 5 9
M  V30 9 2 6 10
M  V30 10 1 6 11
M  V30 11 1 7 12
M  V30 12 1 8 13
M  V30 13 2 9 14
M  V30 14 1 10 15
M  V30 15 2 11 16
M  V30 16 1 12 17
M  V30 17 1 12 18
M  V30 18 1 12 19
M  V30 19 2 13 20
M  V30 20 2 15 21
M  V30 21 1 21 22
M  V30 22 1 22 23
M  V30 23 1 14 20
M  V30 24 1 16 21
M  V30 END BOND
M  V30 END CTAB
M  END
>  <Molecule Name>
CHEMBL389979

>  <smiles_curated>
O=S(=O)(c1ccccc1)N(CC(F)(F)F)c1ccc(CO)cc1

>  <pchembl_value>
5.0

>  <target_organism>
Homo sapiens

>  <standard_type>
EC50

>  <target_pref_name>
Pregnane X receptor

>  <assay_description>
Antagonist activity at human PXR by transient transfection assay

>  <activity>
0

$$$$
CHEMBL3122141
Actelion Java MolfileCreator 2.0

  0  0  0  0  0  0              0 V3000
M  V30 BEGIN CTAB
M  V30 COUNTS 30 33 0 0 0
M  V30 BEGIN ATOM
M  V30 1 O 0.0 0.0 0.0 0
M  V30 2 C 1.1008 1.018 0.0 0 CFG=1
M  V30 3 C 0.7812 2.4976 0.0 0 CFG=2
M  V30 4 C 2.5213 0.5681 0.0 0
M  V30 5 C 1.8821 3.5156 0.0 0 CFG=1
M  V30 6 C -0.6628 2.9711 0.0 0
M  V30 7 C 3.6221 1.5861 0.0 0
M  V30 8 C 3.3025 3.0658 0.0 0 CFG=2
M  V30 9 C 1.5625 4.9953 0.0 0
M  V30 10 C 4.4034 4.0838 0.0 0 CFG=2
M  V30 11 C 4.723 2.616 0.0 0
M  V30 12 C 2.6633 6.0133 0.0 0
M  V30 13 C 4.0838 5.5635 0.0 0
M  V30 14 C 5.8239 3.634 0.0 0
M  V30 15 C 5.1847 6.5815 0.0 0
M  V30 16 C 6.9247 4.652 0.0 0
M  V30 17 C 6.6051 6.1316 0.0 0 CFG=2
M  V30 18 C 5.1728 8.0966 0.0 0
M  V30 19 C 7.4811 7.3627 0.0 0 CFG=2
M  V30 20 C 8.0611 5.8357 0.0 0
M  V30 21 C 6.5933 8.5701 0.0 0
M  V30 22 C 8.9726 7.3746 0.0 0 CFG=1
M  V30 23 C 9.7183 6.0843 0.0 0
M  V30 24 C 9.7183 8.6885 0.0 0
M  V30 25 C 11.2098 6.0961 0.0 0
M  V30 26 C 11.9556 4.8059 0.0 0 CFG=2
M  V30 27 C 11.198 3.5156 0.0 0
M  V30 28 C 13.4471 4.8177 0.0 0
M  V30 29 C 11.9437 2.2254 0.0 0
M  V30 30 C 9.6828 3.5274 0.0 0
M  V30 END ATOM
M  V30 BEGIN BOND
M  V30 1 1 2 1 CFG=1
M  V30 2 1 2 3
M  V30 3 1 2 4
M  V30 4 1 3 5
M  V30 5 1 3 6 CFG=1
M  V30 6 1 4 7
M  V30 7 1 5 8
M  V30 8 1 5 9 CFG=3
M  V30 9 1 8 10
M  V30 10 1 8 11 CFG=3
M  V30 11 1 9 12
M  V30 12 1 10 13
M  V30 13 1 10 14 CFG=3
M  V30 14 2 13 15
M  V30 15 1 14 16
M  V30 16 1 15 17
M  V30 17 1 15 18
M  V30 18 1 17 19
M  V30 19 1 17 20 CFG=3
M  V30 20 1 18 21
M  V30 21 1 19 22
M  V30 22 1 22 23
M  V30 23 1 22 24 CFG=3
M  V30 24 1 23 25
M  V30 25 1 25 26
M  V30 26 1 26 27
M  V30 27 1 26 28 CFG=1
M  V30 28 1 27 29
M  V30 29 1 27 30
M  V30 30 1 7 8
M  V30 31 1 12 13
M  V30 32 1 16 17
M  V30 33 1 19 21 CFG=3
M  V30 END BOND
M  V30 BEGIN COLLECTION
M  V30 MDLV30/STEABS ATOMS=(9 2 3 5 8 10 17 19 22 26)
M  V30 END COLLECTION
M  V30 END CTAB
M  END
>  <Molecule Name>
CHEMBL3122141

>  <smiles_curated>
CC(C)[C@H](C)CC[C@@H](C)[C@H]1CCC2=C3CC[C@H]4[C@H](C)[C@H](O)CC[C@]4(C)[C@H]3CC[C@@]21C

>  <pchembl_value>
4.75

>  <target_organism>
Homo sapiens

>  <standard_type>
EC50

>  <target_pref_name>
Pregnane X receptor

>  <assay_description>
Agonist activity at human full-length PXR transfected in human HepG2 cells co-transfected with pSG5-RXR assessed as induction of transactivation by dual-luciferase reporter gene assay

>  <activity>
0

$$$$
CHEMBL450613
Actelion Java MolfileCreator 2.0

  0  0  0  0  0  0              0 V3000
M  V30 BEGIN CTAB
M  V30 COUNTS 23 24 0 0 0
M  V30 BEGIN ATOM
M  V30 1 O 0.0 0.0 0.0 0
M  V30 2 C 1.0672 -1.0435 0.0 0
M  V30 3 O 0.1185 -2.2056 0.0 0
M  V30 4 C 2.4072 -0.3794 0.0 0
M  V30 5 C -0.2253 -3.6642 0.0 0 CFG=2
M  V30 6 C 1.6483 0.9368 0.0 0
M  V30 7 C 3.9014 -0.3676 0.0 0
M  V30 8 C 0.0948 -5.1228 0.0 0
M  V30 9 C -1.7431 -3.6524 0.0 0
M  V30 10 O 0.1423 1.1265 0.0 0
M  V30 11 C 2.3954 2.2531 0.0 0
M  V30 12 C 4.6485 0.9486 0.0 0
M  V30 13 C 5.2414 -1.0079 0.0 0
M  V30 14 C 1.0198 -6.2849 0.0 0
M  V30 15 C 3.8895 2.2649 0.0 0
M  V30 16 C 6.1664 -2.1701 0.0 0
M  V30 17 C 2.3598 -6.9253 0.0 0
M  V30 18 O 4.6366 3.5812 0.0 0
M  V30 19 C 6.4865 -3.6286 0.0 0
M  V30 20 C 3.854 -6.9134 0.0 0 CFG=2
M  V30 21 C 6.1426 -5.0872 0.0 0
M  V30 22 O 4.1741 -8.372 0.0 0
M  V30 23 C 5.194 -6.2494 0.0 0
M  V30 END ATOM
M  V30 BEGIN BOND
M  V30 1 2 1 2
M  V30 2 1 2 3
M  V30 3 1 2 4
M  V30 4 1 3 5
M  V30 5 2 4 6
M  V30 6 1 4 7
M  V30 7 1 5 8
M  V30 8 1 5 9 CFG=3
M  V30 9 1 6 10
M  V30 10 1 6 11
M  V30 11 2 7 12
M  V30 12 1 7 13
M  V30 13 1 8 14
M  V30 14 2 11 15
M  V30 15 1 13 16
M  V30 16 1 14 17
M  V30 17 1 15 18
M  V30 18 1 16 19
M  V30 19 1 17 20
M  V30 20 1 19 21
M  V30 21 1 20 22 CFG=1
M  V30 22 1 20 23
M  V30 23 1 12 15
M  V30 24 1 21 23
M  V30 END BOND
M  V30 BEGIN COLLECTION
M  V30 MDLV30/STEABS ATOMS=(2 5 20)
M  V30 END COLLECTION
M  V30 END CTAB
M  END
>  <Molecule Name>
CHEMBL450613

>  <smiles_curated>
C[C@H]1CCC[C@H](O)CCCCCc2cc(O)cc(O)c2C(=O)O1

>  <pchembl_value>
4.62

>  <target_organism>
Homo sapiens

>  <standard_type>
EC50

>  <target_pref_name>
Pregnane X receptor

>  <assay_description>
Activation of human PXR expressed in human HepG2 (DPX-2) cells after 24 hrs by luciferase reporter gene based luminescent analysis,Activation of human PXR expressed in human HepG2 (DPX-2) cells assessed as induction of CYP3A4 after 24 hrs by luminescent analysis,Competitive binding affinity to human PXR LBD (111 to 434) by TR-FRET assay

>  <activity>
0

$$$$
CHEMBL1080983
Actelion Java MolfileCreator 2.0

  0  0  0  0  0  0              0 V3000
M  V30 BEGIN CTAB
M  V30 COUNTS 31 32 0 0 0
M  V30 BEGIN ATOM
M  V30 1 S 0.0 0.0 0.0 0
M  V30 2 C 0.7439 1.3106 0.0 0
M  V30 3 C -1.5114 0.0118 0.0 0
M  V30 4 C 2.2317 1.3224 0.0 0
M  V30 5 C -0.0118 2.6213 0.0 0
M  V30 6 C -2.2671 1.3224 0.0 0
M  V30 7 C -2.2671 -1.2752 0.0 0
M  V30 8 C 2.9756 2.6331 0.0 0
M  V30 9 C 0.732 3.932 0.0 0
M  V30 10 C -3.7785 1.3343 0.0 0
M  V30 11 C -3.7785 -1.2634 0.0 0
M  V30 12 N 4.4634 2.6449 0.0 0
M  V30 13 C 2.2199 3.9438 0.0 0
M  V30 14 C -4.5342 0.0472 0.0 0
M  V30 15 C 5.2073 1.3579 0.0 0
M  V30 16 N 2.9638 5.2545 0.0 0
M  V30 17 O 4.4516 0.0708 0.0 0
M  V30 18 C 6.6951 1.3697 0.0 0
M  V30 19 C 4.4516 5.2663 0.0 0
M  V30 20 O 7.439 0.0826 0.0 0
M  V30 21 N 5.1955 6.577 0.0 0
M  V30 22 N 5.1955 3.9793 0.0 0
M  V30 23 C 8.9268 0.0944 0.0 0
M  V30 24 C 4.4398 7.8877 0.0 0
M  V30 25 C 6.6833 3.9911 0.0 0
M  V30 26 O 2.9283 7.8995 0.0 0
M  V30 27 O 5.1837 9.1984 0.0 0
M  V30 28 O 7.4272 5.3018 0.0 0
M  V30 29 O 7.4272 2.704 0.0 0
M  V30 30 C 4.428 10.5091 0.0 0
M  V30 31 C 8.915 2.7158 0.0 0
M  V30 END ATOM
M  V30 BEGIN BOND
M  V30 1 1 1 2
M  V30 2 1 1 3
M  V30 3 2 2 4
M  V30 4 1 2 5
M  V30 5 2 3 6
M  V30 6 1 3 7
M  V30 7 1 4 8
M  V30 8 2 5 9
M  V30 9 1 6 10
M  V30 10 2 7 11
M  V30 11 1 8 12
M  V30 12 2 8 13
M  V30 13 2 10 14
M  V30 14 1 12 15
M  V30 15 1 13 16
M  V30 16 2 15 17
M  V30 17 1 15 18
M  V30 18 1 16 19
M  V30 19 1 18 20
M  V30 20 2 19 21
M  V30 21 1 19 22
M  V30 22 1 20 23
M  V30 23 1 21 24
M  V30 24 1 22 25
M  V30 25 2 24 26
M  V30 26 1 24 27
M  V30 27 2 25 28
M  V30 28 1 25 29
M  V30 29 1 27 30
M  V30 30 1 29 31
M  V30 31 1 9 13
M  V30 32 1 11 14
M  V30 END BOND
M  V30 END CTAB
M  END
>  <Molecule Name>
CHEMBL1080983

>  <smiles_curated>
COCC(=O)Nc1cc(Sc2ccccc2)ccc1N/C(=N\C(=O)OC)NC(=O)OC

>  <pchembl_value>
4.9

>  <target_organism>
Homo sapiens

>  <standard_type>
EC50

>  <target_pref_name>
Pregnane X receptor

>  <assay_description>
Activation of human PXR expressed in human HepG2 (DPX-2) cells after 24 hrs by luciferase reporter gene based luminescent analysis,Activation of human PXR expressed in human HepG2 (DPX-2) cells assessed as induction of CYP3A4 after 24 hrs by luminescent analysis

>  <activity>
0

$$$$
CHEMBL1289
Actelion Java MolfileCreator 2.0

  0  0  0  0  0  0              0 V3000
M  V30 BEGIN CTAB
M  V30 COUNTS 14 14 0 0 0
M  V30 BEGIN ATOM
M  V30 1 I 0.0 0.0 0.0 0
M  V30 2 C 1.4957 0.0118 0.0 0
M  V30 3 C 2.9914 0.0237 0.0 0
M  V30 4 C 4.4872 0.0356 0.0 0
M  V30 5 O 5.2351 -1.2583 0.0 0
M  V30 6 C 6.7308 -1.2464 0.0 0
M  V30 7 C 7.4787 -2.5403 0.0 0
M  V30 8 C 7.4787 0.0712 0.0 0
M  V30 9 Cl 6.7189 -3.8343 0.0 0
M  V30 10 C 8.9744 -2.5285 0.0 0
M  V30 11 C 8.9744 0.083 0.0 0
M  V30 12 C 9.7223 -1.2108 0.0 0
M  V30 13 Cl 9.7223 1.4007 0.0 0
M  V30 14 Cl 11.2181 -1.1989 0.0 0
M  V30 END ATOM
M  V30 BEGIN BOND
M  V30 1 1 1 2
M  V30 2 3 2 3
M  V30 3 1 3 4
M  V30 4 1 4 5
M  V30 5 1 5 6
M  V30 6 2 6 7
M  V30 7 1 6 8
M  V30 8 1 7 9
M  V30 9 1 7 10
M  V30 10 2 8 11
M  V30 11 2 10 12
M  V30 12 1 11 13
M  V30 13 1 12 14
M  V30 14 1 11 12
M  V30 END BOND
M  V30 END CTAB
M  END
>  <Molecule Name>
CHEMBL1289

>  <smiles_curated>
Clc1cc(Cl)c(OCC#CI)cc1Cl

>  <pchembl_value>
5.0

>  <target_organism>
Homo sapiens

>  <standard_type>
EC50

>  <target_pref_name>
Pregnane X receptor

>  <assay_description>
Competitive binding affinity to human PXR LBD (111 to 434) by TR-FRET assay

>  <activity>
0

$$$$
CHEMBL1488455
Actelion Java MolfileCreator 2.0

  0  0  0  0  0  0              0 V3000
M  V30 BEGIN CTAB
M  V30 COUNTS 17 18 0 0 0
M  V30 BEGIN ATOM
M  V30 1 Cl 0.0 0.0 0.0 0
M  V30 2 C 1.4931 0.0118 0.0 0
M  V30 3 C 2.2397 1.3272 0.0 0
M  V30 4 C 2.2397 -1.2798 0.0 0
M  V30 5 F 1.4813 2.6426 0.0 0
M  V30 6 C 3.7329 1.3391 0.0 0
M  V30 7 C 3.7329 -1.268 0.0 0
M  V30 8 C 4.4795 0.0474 0.0 0
M  V30 9 N 4.4795 -2.5597 0.0 0
M  V30 10 C 3.721 -3.8514 0.0 0
M  V30 11 S 2.2042 -3.8396 0.0 0
M  V30 12 N 4.4676 -5.1431 0.0 0
M  V30 13 C 3.7092 -6.4348 0.0 0
M  V30 14 O 2.1923 -6.423 0.0 0
M  V30 15 C 4.4558 -7.7266 0.0 0
M  V30 16 C 5.7475 -8.4731 0.0 0
M  V30 17 C 4.4439 -9.2197 0.0 0
M  V30 END ATOM
M  V30 BEGIN BOND
M  V30 1 1 1 2
M  V30 2 2 2 3
M  V30 3 1 2 4
M  V30 4 1 3 5
M  V30 5 1 3 6
M  V30 6 2 4 7
M  V30 7 2 6 8
M  V30 8 1 7 9
M  V30 9 1 9 10
M  V30 10 2 10 11
M  V30 11 1 10 12
M  V30 12 1 12 13
M  V30 13 2 13 14
M  V30 14 1 13 15
M  V30 15 1 15 16
M  V30 16 1 15 17
M  V30 17 1 7 8
M  V30 18 1 16 17
M  V30 END BOND
M  V30 END CTAB
M  END
>  <Molecule Name>
CHEMBL1488455

>  <smiles_curated>
O=C(NC(=S)Nc1ccc(F)c(Cl)c1)C1CC1

>  <pchembl_value>
4.22

>  <target_organism>
Homo sapiens

>  <standard_type>
EC50

>  <target_pref_name>
Pregnane X receptor

>  <assay_description>
PUBCHEM_BIOASSAY: Luminescence-based counterscreen for activators of the Aryl Hydrocarbon Receptor (AHR): cell-based high throughput dose response screening assay for activators of the Pregnane X Receptor (PXR). (Class of assay: confirmatory) [Related pubchem assays: 2796 (Primary screen (AHR activators in singlicate)), 2845 (Confirmation screen (AHR activators in triplicate)), 434939 (Counterscreen (PXR activators in triplicate)), 2804 (Summary (AHR activators))]

>  <activity>
0

$$$$
CHEMBL1529540
Actelion Java MolfileCreator 2.0

  0  0  0  0  0  0              0 V3000
M  V30 BEGIN CTAB
M  V30 COUNTS 21 23 0 0 0
M  V30 BEGIN ATOM
M  V30 1 O 0.0 0.0 0.0 0
M  V30 2 C -1.1198 1.0138 0.0 0
M  V30 3 N -0.8251 2.4873 0.0 0
M  V30 4 C -2.558 0.5658 0.0 0
M  V30 5 C 0.5894 2.9588 0.0 0
M  V30 6 C -2.8763 -0.8841 0.0 0
M  V30 7 N 1.7918 2.0865 0.0 0
M  V30 8 C 1.0373 4.397 0.0 0
M  V30 9 C -4.3145 -1.332 0.0 0
M  V30 10 N 2.9942 2.9824 0.0 0
M  V30 11 C 2.5227 4.4088 0.0 0
M  V30 12 C 0.2829 5.7055 0.0 0
M  V30 13 C 4.4088 2.5345 0.0 0
M  V30 14 N 3.2653 5.7173 0.0 0
M  V30 15 C 1.0255 7.0141 0.0 0
M  V30 16 C 2.5109 7.0258 0.0 0
M  V30 17 C 0.2711 8.3226 0.0 0
M  V30 18 C 3.2536 8.3344 0.0 0
M  V30 19 C 1.0138 9.6311 0.0 0
M  V30 20 C 2.4991 9.6429 0.0 0
M  V30 21 C 3.2418 10.9514 0.0 0
M  V30 END ATOM
M  V30 BEGIN BOND
M  V30 1 2 1 2
M  V30 2 1 2 3
M  V30 3 1 2 4
M  V30 4 1 3 5
M  V30 5 1 4 6
M  V30 6 2 5 7
M  V30 7 1 5 8
M  V30 8 1 6 9
M  V30 9 1 7 10
M  V30 10 1 8 11
M  V30 11 2 8 12
M  V30 12 1 10 13
M  V30 13 2 11 14
M  V30 14 1 12 15
M  V30 15 1 14 16
M  V30 16 2 15 17
M  V30 17 2 16 18
M  V30 18 1 17 19
M  V30 19 1 18 20
M  V30 20 1 20 21
M  V30 21 1 10 11
M  V30 22 1 15 16
M  V30 23 2 19 20
M  V30 END BOND
M  V30 END CTAB
M  END
>  <Molecule Name>
CHEMBL1529540

>  <smiles_curated>
CCCC(=O)Nc1nn(C)c2nc3cc(C)ccc3cc12

>  <pchembl_value>
4.09

>  <target_organism>
Homo sapiens

>  <standard_type>
EC50

>  <target_pref_name>
Pregnane X receptor

>  <assay_description>
PUBCHEM_BIOASSAY: Luminescence-based counterscreen for activators of the Aryl Hydrocarbon Receptor (AHR): cell-based high throughput dose response screening assay for activators of the Pregnane X Receptor (PXR). (Class of assay: confirmatory) [Related pubchem assays: 2796 (Primary screen (AHR activators in singlicate)), 2845 (Confirmation screen (AHR activators in triplicate)), 434939 (Counterscreen (PXR activators in triplicate)), 2804 (Summary (AHR activators))]

>  <activity>
0

$$$$
CHEMBL4444851
Actelion Java MolfileCreator 2.0

  0  0  0  0  0  0              0 V3000
M  V30 BEGIN CTAB
M  V30 COUNTS 29 31 0 0 0
M  V30 BEGIN ATOM
M  V30 1 S 0.0 0.0 0.0 0
M  V30 2 O 1.3302 -0.1781 0.0 0
M  V30 3 O -1.5084 -0.1425 0.0 0
M  V30 4 C 0.1425 -1.4846 0.0 0
M  V30 5 C -0.1662 1.5084 0.0 0
M  V30 6 C -1.0927 -2.3636 0.0 0
M  V30 7 C 1.5084 -2.0904 0.0 0
M  V30 8 C 1.3302 1.5203 0.0 0
M  V30 9 C -1.6509 1.2115 0.0 0
M  V30 10 C -0.0237 3.0168 0.0 0
M  V30 11 C -0.9501 -3.8483 0.0 0
M  V30 12 C 1.6509 -3.5751 0.0 0
M  V30 13 C 2.0785 0.2256 0.0 0
M  V30 14 C 2.0785 2.8387 0.0 0
M  V30 15 C -2.4111 2.5299 0.0 0
M  V30 16 C -1.4134 3.6463 0.0 0
M  V30 17 C 0.4157 -4.454 0.0 0
M  V30 18 C 3.5751 0.2375 0.0 0
M  V30 19 C 3.5751 2.8505 0.0 0
M  V30 20 F 0.5582 -5.9387 0.0 0
M  V30 21 C 4.3234 1.5559 0.0 0
M  V30 22 C 5.8199 1.5678 0.0 0 CFG=1
M  V30 23 O 5.808 0.0712 0.0 0
M  V30 24 C 5.808 3.0881 0.0 0
M  V30 25 C 7.3165 1.5797 0.0 0
M  V30 26 F 5.7962 4.6084 0.0 0
M  V30 27 F 7.2927 3.2781 0.0 0
M  V30 28 F 4.3352 3.4682 0.0 0
M  V30 29 C 8.2073 2.7912 0.0 0
M  V30 END ATOM
M  V30 BEGIN BOND
M  V30 1 2 1 2
M  V30 2 2 1 3
M  V30 3 1 1 4
M  V30 4 1 1 5
M  V30 5 2 4 6
M  V30 6 1 4 7
M  V30 7 1 5 8
M  V30 8 1 5 9
M  V30 9 1 5 10
M  V30 10 1 6 11
M  V30 11 2 7 12
M  V30 12 2 8 13
M  V30 13 1 8 14
M  V30 14 1 9 15
M  V30 15 1 10 16
M  V30 16 2 11 17
M  V30 17 1 13 18
M  V30 18 2 14 19
M  V30 19 1 17 20
M  V30 20 2 18 21
M  V30 21 1 21 22
M  V30 22 1 22 23 CFG=3
M  V30 23 1 22 24
M  V30 24 1 22 25
M  V30 25 1 24 26
M  V30 26 1 24 27
M  V30 27 1 24 28
M  V30 28 1 25 29
M  V30 29 1 12 17
M  V30 30 1 15 16
M  V30 31 1 19 21
M  V30 END BOND
M  V30 BEGIN COLLECTION
M  V30 MDLV30/STERAC1 ATOMS=(1 22)
M  V30 END COLLECTION
M  V30 END CTAB
M  END
>  <Molecule Name>
CHEMBL4444851

>  <smiles_curated>
CCC(O)(c1ccc(C2(S(=O)(=O)c3ccc(F)cc3)CCCC2)cc1)C(F)(F)F

>  <pchembl_value>
7.32

>  <target_organism>
Homo sapiens

>  <standard_type>
EC50

>  <target_pref_name>
Pregnane X receptor

>  <assay_description>
Transactivation of PXR in human HepG2 cells

>  <activity>
1

$$$$
CHEMBL464496
Actelion Java MolfileCreator 2.0

  0  0  0  0  0  0              0 V3000
M  V30 BEGIN CTAB
M  V30 COUNTS 28 31 0 0 0
M  V30 BEGIN ATOM
M  V30 1 S 0.0 0.0 0.0 0
M  V30 2 O -1.3061 0.7531 0.0 0
M  V30 3 O 1.2826 -0.7413 0.0 0
M  V30 4 N 0.7413 1.3061 0.0 0
M  V30 5 C -0.7531 -1.2826 0.0 0
M  V30 6 C -0.0117 2.6123 0.0 0
M  V30 7 C -0.0117 -2.5653 0.0 0
M  V30 8 C -2.2593 -1.2708 0.0 0
M  V30 9 C -1.518 2.6241 0.0 0
M  V30 10 C 0.7295 3.9185 0.0 0
M  V30 11 C -0.7648 -3.8479 0.0 0
M  V30 12 C -3.0124 -2.5535 0.0 0
M  V30 13 C -2.2711 3.9303 0.0 0
M  V30 14 C -0.0235 5.2247 0.0 0
M  V30 15 C -2.2711 -3.8362 0.0 0
M  V30 16 C -0.0235 -5.1306 0.0 0
M  V30 17 C -4.5187 -2.5417 0.0 0
M  V30 18 N -3.742 4.248 0.0 0
M  V30 19 C -1.5297 5.2365 0.0 0
M  V30 20 C -3.9068 5.7425 0.0 0
M  V30 21 N -2.5417 6.3544 0.0 0
M  V30 22 C -2.2475 7.8253 0.0 0
M  V30 23 C -3.3655 8.8373 0.0 0
M  V30 24 C -3.0713 10.3083 0.0 0
M  V30 25 C -4.8011 8.3902 0.0 0
M  V30 26 C -4.1892 11.3203 0.0 0
M  V30 27 C -5.919 9.4022 0.0 0
M  V30 28 C -5.6248 10.8731 0.0 0
M  V30 END ATOM
M  V30 BEGIN BOND
M  V30 1 2 1 2
M  V30 2 2 1 3
M  V30 3 1 1 4
M  V30 4 1 1 5
M  V30 5 1 4 6
M  V30 6 2 5 7
M  V30 7 1 5 8
M  V30 8 2 6 9
M  V30 9 1 6 10
M  V30 10 1 7 11
M  V30 11 2 8 12
M  V30 12 1 9 13
M  V30 13 2 10 14
M  V30 14 2 11 15
M  V30 15 1 11 16
M  V30 16 1 12 17
M  V30 17 1 13 18
M  V30 18 2 13 19
M  V30 19 2 18 20
M  V30 20 1 19 21
M  V30 21 1 21 22
M  V30 22 1 22 23
M  V30 23 2 23 24
M  V30 24 1 23 25
M  V30 25 1 24 26
M  V30 26 2 25 27
M  V30 27 2 26 28
M  V30 28 1 12 15
M  V30 29 1 14 19
M  V30 30 1 20 21
M  V30 31 1 27 28
M  V30 END BOND
M  V30 END CTAB
M  END
>  <Molecule Name>
CHEMBL464496

>  <smiles_curated>
Cc1cc(C)cc(S(=O)(=O)Nc2ccc3c(c2)ncn3Cc2ccccc2)c1

>  <pchembl_value>
7.48

>  <target_organism>
Homo sapiens

>  <standard_type>
EC50

>  <target_pref_name>
Pregnane X receptor

>  <assay_description>
Agonist activity at human pregnane X receptor expressed in HGPXR reporter cells

>  <activity>
1

$$$$
CHEMBL3617309
Actelion Java MolfileCreator 2.0

  0  0  0  0  0  0              0 V3000
M  V30 BEGIN CTAB
M  V30 COUNTS 30 33 0 0 0
M  V30 BEGIN ATOM
M  V30 1 Cl 0.0 0.0 0.0 0
M  V30 2 C -0.7542 -1.2845 0.0 0
M  V30 3 C -2.2627 -1.2728 0.0 0
M  V30 4 C -0.0117 -2.5691 0.0 0
M  V30 5 C -3.017 0.0353 0.0 0
M  V30 6 C -3.017 -2.5574 0.0 0
M  V30 7 C -0.766 -3.8537 0.0 0
M  V30 8 O -4.5255 0.0471 0.0 0
M  V30 9 N -2.2745 1.3435 0.0 0
M  V30 10 C -2.2745 -3.842 0.0 0
M  V30 11 C -3.0288 2.6516 0.0 0
M  V30 12 C -4.5373 2.6634 0.0 0
M  V30 13 C -2.2863 3.9598 0.0 0
M  V30 14 C -5.2915 3.9716 0.0 0
M  V30 15 C -3.0406 5.268 0.0 0
M  V30 16 N -6.8001 3.9834 0.0 0
M  V30 17 C -4.5491 5.2798 0.0 0
M  V30 18 S -7.5543 2.6988 0.0 0
M  V30 19 C -7.5543 5.2915 0.0 0
M  V30 20 C -5.3033 6.5879 0.0 0
M  V30 21 O -6.2697 1.9563 0.0 0
M  V30 22 O -8.8625 3.453 0.0 0
M  V30 23 C -8.3086 1.4142 0.0 0
M  V30 24 C -6.8118 6.5997 0.0 0
M  V30 25 C -9.8171 1.426 0.0 0
M  V30 26 C -7.5661 0.1296 0.0 0
M  V30 27 C -10.5714 0.1414 0.0 0
M  V30 28 C -8.3204 -1.1549 0.0 0
M  V30 29 C -9.8289 -1.1431 0.0 0
M  V30 30 F -10.5831 -2.4277 0.0 0
M  V30 END ATOM
M  V30 BEGIN BOND
M  V30 1 1 1 2
M  V30 2 2 2 3
M  V30 3 1 2 4
M  V30 4 1 3 5
M  V30 5 1 3 6
M  V30 6 2 4 7
M  V30 7 2 5 8
M  V30 8 1 5 9
M  V30 9 2 6 10
M  V30 10 1 9 11
M  V30 11 2 11 12
M  V30 12 1 11 13
M  V30 13 1 12 14
M  V30 14 2 13 15
M  V30 15 1 14 16
M  V30 16 2 14 17
M  V30 17 1 16 18
M  V30 18 1 16 19
M  V30 19 1 17 20
M  V30 20 2 18 21
M  V30 21 2 18 22
M  V30 22 1 18 23
M  V30 23 1 19 24
M  V30 24 2 23 25
M  V30 25 1 23 26
M  V30 26 1 25 27
M  V30 27 2 26 28
M  V30 28 2 27 29
M  V30 29 1 29 30
M  V30 30 1 7 10
M  V30 31 1 15 17
M  V30 32 1 20 24
M  V30 33 1 28 29
M  V30 END BOND
M  V30 END CTAB
M  END
>  <Molecule Name>
CHEMBL3617309

>  <smiles_curated>
O=C(Nc1ccc2CCCN(S(=O)(=O)c3ccc(F)cc3)c2c1)c1ccccc1Cl

>  <pchembl_value>
6.03

>  <target_organism>
Homo sapiens

>  <standard_type>
EC50

>  <target_pref_name>
Pregnane X receptor

>  <assay_description>
Antagonist activity at GAL4-fused human PXR expressed in HEK293 cells assessed as inhibition of T0901317-stimulated transcriptional activity after 20 hrs by dual-glo luciferase reporter gene assay

>  <activity>
1

$$$$
CHEMBL282489
Actelion Java MolfileCreator 2.0

  0  0  0  0  0  0              0 V3000
M  V30 BEGIN CTAB
M  V30 COUNTS 24 27 0 0 0
M  V30 BEGIN ATOM
M  V30 1 O 0.0 0.0 0.0 0
M  V30 2 C -0.7575 -1.2902 0.0 0
M  V30 3 C -0.0118 -2.5805 0.0 0
M  V30 4 C -2.2727 -1.2784 0.0 0
M  V30 5 C -0.7694 -3.8708 0.0 0
M  V30 6 C -3.0303 -2.5687 0.0 0
M  V30 7 C -2.2846 -3.859 0.0 0
M  V30 8 C -0.0236 -5.1611 0.0 0
M  V30 9 C -3.0422 -5.1493 0.0 0
M  V30 10 C -0.7812 -6.4514 0.0 0 CFG=2
M  V30 11 C -2.2964 -6.4395 0.0 0
M  V30 12 C -4.5574 -5.1374 0.0 0 CFG=1
M  V30 13 C -0.0355 -7.7417 0.0 0
M  V30 14 C -3.054 -7.7298 0.0 0
M  V30 15 C -5.315 -6.4277 0.0 0
M  V30 16 C -5.315 -3.8235 0.0 0
M  V30 17 C 1.456 -7.7298 0.0 0
M  V30 18 C -4.5692 -7.718 0.0 0
M  V30 19 C -2.3083 -9.0201 0.0 0
M  V30 20 C -6.8302 -3.8116 0.0 0
M  V30 21 C -5.3268 -9.0083 0.0 0
M  V30 22 C -3.0659 -10.3104 0.0 0
M  V30 23 C -4.5811 -10.2986 0.0 0
M  V30 24 O -5.3387 -11.5888 0.0 0
M  V30 END ATOM
M  V30 BEGIN BOND
M  V30 1 1 1 2
M  V30 2 2 2 3
M  V30 3 1 2 4
M  V30 4 1 3 5
M  V30 5 2 4 6
M  V30 6 2 5 7
M  V30 7 1 5 8
M  V30 8 1 7 9
M  V30 9 1 8 10
M  V30 10 2 9 11
M  V30 11 1 9 12
M  V30 12 1 10 13 CFG=1
M  V30 13 1 11 14
M  V30 14 1 12 15
M  V30 15 1 12 16 CFG=1
M  V30 16 1 13 17
M  V30 17 2 14 18
M  V30 18 1 14 19
M  V30 19 1 16 20
M  V30 20 1 18 21
M  V30 21 2 19 22
M  V30 22 2 21 23
M  V30 23 1 23 24
M  V30 24 1 6 7
M  V30 25 1 10 11
M  V30 26 1 15 18
M  V30 27 1 22 23
M  V30 END BOND
M  V30 BEGIN COLLECTION
M  V30 MDLV30/STEABS ATOMS=(2 10 12)
M  V30 END COLLECTION
M  V30 END CTAB
M  END
>  <Molecule Name>
CHEMBL282489

>  <smiles_curated>
CC[C@@H]1Cc2cc(O)ccc2C2=C1c1ccc(O)cc1C[C@H]2CC

>  <pchembl_value>
5.07

>  <target_organism>
Homo sapiens

>  <standard_type>
EC50

>  <target_pref_name>
Pregnane X receptor

>  <assay_description>
Agonist activity at PXR (unknown origin) expressed in human HepG2 cells assessed as induction of CYP3A4 transactivation after 16 hrs by luciferase reporter gene assay

>  <activity>
0

$$$$
CHEMBL513946
Actelion Java MolfileCreator 2.0

  0  0  0  0  0  0              0 V3000
M  V30 BEGIN CTAB
M  V30 COUNTS 27 30 0 0 0
M  V30 BEGIN ATOM
M  V30 1 Cl 0.0 0.0 0.0 0
M  V30 2 C -1.5033 0.0117 0.0 0
M  V30 3 C -2.255 1.3154 0.0 0
M  V30 4 C -2.255 -1.2684 0.0 0
M  V30 5 S -1.5151 2.6191 0.0 0
M  V30 6 C -3.7584 1.3272 0.0 0
M  V30 7 C -3.7584 -1.2567 0.0 0
M  V30 8 O -2.8188 3.3708 0.0 0
M  V30 9 O -0.2349 1.8792 0.0 0
M  V30 10 N -0.7751 3.9228 0.0 0
M  V30 11 C -4.5101 0.0469 0.0 0
M  V30 12 C -1.5268 5.2266 0.0 0
M  V30 13 C -3.0302 5.2383 0.0 0
M  V30 14 C -0.7869 6.5303 0.0 0
M  V30 15 C -3.7819 6.542 0.0 0
M  V30 16 C -1.5386 7.834 0.0 0
M  V30 17 N -5.25 6.8591 0.0 0
M  V30 18 C -3.042 7.8457 0.0 0
M  V30 19 C -5.4145 8.3508 0.0 0
M  V30 20 N -4.052 8.9615 0.0 0
M  V30 21 C -3.7584 10.4297 0.0 0
M  V30 22 C -4.8742 11.4398 0.0 0
M  V30 23 C -4.5806 12.9079 0.0 0
M  V30 24 C -6.3071 10.9934 0.0 0
M  V30 25 C -5.6964 13.918 0.0 0
M  V30 26 C -7.4229 12.0035 0.0 0
M  V30 27 C -7.1293 13.4717 0.0 0
M  V30 END ATOM
M  V30 BEGIN BOND
M  V30 1 1 1 2
M  V30 2 2 2 3
M  V30 3 1 2 4
M  V30 4 1 3 5
M  V30 5 1 3 6
M  V30 6 2 4 7
M  V30 7 2 5 8
M  V30 8 2 5 9
M  V30 9 1 5 10
M  V30 10 2 6 11
M  V30 11 1 10 12
M  V30 12 2 12 13
M  V30 13 1 12 14
M  V30 14 1 13 15
M  V30 15 2 14 16
M  V30 16 1 15 17
M  V30 17 2 15 18
M  V30 18 2 17 19
M  V30 19 1 18 20
M  V30 20 1 20 21
M  V30 21 1 21 22
M  V30 22 2 22 23
M  V30 23 1 22 24
M  V30 24 1 23 25
M  V30 25 2 24 26
M  V30 26 2 25 27
M  V30 27 1 7 11
M  V30 28 1 16 18
M  V30 29 1 19 20
M  V30 30 1 26 27
M  V30 END BOND
M  V30 END CTAB
M  END
>  <Molecule Name>
CHEMBL513946

>  <smiles_curated>
O=S(=O)(Nc1ccc2c(c1)ncn2Cc1ccccc1)c1ccccc1Cl

>  <pchembl_value>
7.22

>  <target_organism>
Homo sapiens

>  <standard_type>
EC50

>  <target_pref_name>
Pregnane X receptor

>  <assay_description>
Agonist activity at human pregnane X receptor expressed in HGPXR reporter cells,Protection of human pregnane X receptor against proteolytic digestion in presence of trypsin

>  <activity>
1

$$$$
CHEMBL4453347
Actelion Java MolfileCreator 2.0

  0  0  0  0  0  0              0 V3000
M  V30 BEGIN CTAB
M  V30 COUNTS 25 28 0 0 0
M  V30 BEGIN ATOM
M  V30 1 Cl 0.0 0.0 0.0 0
M  V30 2 C 0.6977 1.3363 0.0 0
M  V30 3 C -0.1064 2.6254 0.0 0
M  V30 4 C 2.1878 1.3954 0.0 0
M  V30 5 C 0.5913 3.9617 0.0 0
M  V30 6 C 2.8855 2.7318 0.0 0
M  V30 7 C 2.0814 4.0208 0.0 0
M  V30 8 C 2.7791 5.3572 0.0 0
M  V30 9 C 4.1982 4.9078 0.0 0
M  V30 10 C 1.5847 6.2915 0.0 0
M  V30 11 C 2.9801 6.8591 0.0 0
M  V30 12 N 5.4045 5.8066 0.0 0
M  V30 13 N 4.6476 3.4887 0.0 0
M  V30 14 N 6.6108 4.9315 0.0 0
M  V30 15 C 6.1377 3.5005 0.0 0
M  V30 16 C 3.8908 2.1996 0.0 0
M  V30 17 C 6.8828 2.2114 0.0 0
M  V30 18 C 4.6358 0.9106 0.0 0
M  V30 19 C 6.1259 0.9224 0.0 0
M  V30 20 C 8.3729 2.2233 0.0 0
M  V30 21 C 9.863 2.2351 0.0 0
M  V30 22 C 8.361 0.7332 0.0 0
M  V30 23 C 8.361 3.737 0.0 0
M  V30 24 C 10.608 3.5478 0.0 0
M  V30 25 O 12.0981 3.5596 0.0 0
M  V30 END ATOM
M  V30 BEGIN BOND
M  V30 1 1 1 2
M  V30 2 2 2 3
M  V30 3 1 2 4
M  V30 4 1 3 5
M  V30 5 2 4 6
M  V30 6 2 5 7
M  V30 7 1 7 8
M  V30 8 1 8 9
M  V30 9 1 8 10
M  V30 10 1 8 11
M  V30 11 2 9 12
M  V30 12 1 9 13
M  V30 13 1 12 14
M  V30 14 1 13 15
M  V30 15 1 13 16
M  V30 16 1 15 17
M  V30 17 2 16 18
M  V30 18 2 17 19
M  V30 19 1 17 20
M  V30 20 1 20 21
M  V30 21 1 20 22
M  V30 22 1 20 23
M  V30 23 1 21 24
M  V30 24 1 24 25
M  V30 25 1 6 7
M  V30 26 1 10 11
M  V30 27 2 14 15
M  V30 28 1 18 19
M  V30 END BOND
M  V30 END CTAB
M  END
>  <Molecule Name>
CHEMBL4453347

>  <smiles_curated>
CC(C)(CCO)c1cccn2c(C3(c4ccc(Cl)cc4)CC3)nnc12

>  <pchembl_value>
5.89

>  <target_organism>
Homo sapiens

>  <standard_type>
EC50

>  <target_pref_name>
Pregnane X receptor

>  <assay_description>
Activation of PXR (unknown origin)

>  <activity>
0

$$$$
CHEMBL4563301
Actelion Java MolfileCreator 2.0

  0  0  0  0  0  0              0 V3000
M  V30 BEGIN CTAB
M  V30 COUNTS 21 24 0 0 0
M  V30 BEGIN ATOM
M  V30 1 Cl 0.0 0.0 0.0 0
M  V30 2 C 0.6978 1.3365 0.0 0
M  V30 3 C -0.1064 2.6257 0.0 0
M  V30 4 C 2.1881 1.3956 0.0 0
M  V30 5 C 0.5913 3.9622 0.0 0
M  V30 6 C 2.8859 2.7322 0.0 0
M  V30 7 C 2.0816 4.0214 0.0 0
M  V30 8 C 2.7795 5.3579 0.0 0
M  V30 9 C 4.1988 4.9085 0.0 0
M  V30 10 C 1.5849 6.2923 0.0 0
M  V30 11 C 2.9805 6.86 0.0 0
M  V30 12 N 5.4052 5.8074 0.0 0
M  V30 13 N 4.6482 3.4891 0.0 0
M  V30 14 N 6.6116 4.9321 0.0 0
M  V30 15 C 6.1385 3.501 0.0 0
M  V30 16 C 3.8913 2.1999 0.0 0
M  V30 17 C 6.8837 2.2117 0.0 0
M  V30 18 C 4.6364 0.9107 0.0 0
M  V30 19 C 6.1267 0.9225 0.0 0
M  V30 20 C 8.374 2.2236 0.0 0
M  V30 21 O 9.1191 0.9343 0.0 0
M  V30 END ATOM
M  V30 BEGIN BOND
M  V30 1 1 1 2
M  V30 2 2 2 3
M  V30 3 1 2 4
M  V30 4 1 3 5
M  V30 5 2 4 6
M  V30 6 2 5 7
M  V30 7 1 7 8
M  V30 8 1 8 9
M  V30 9 1 8 10
M  V30 10 1 8 11
M  V30 11 2 9 12
M  V30 12 1 9 13
M  V30 13 1 12 14
M  V30 14 1 13 15
M  V30 15 1 13 16
M  V30 16 1 15 17
M  V30 17 2 16 18
M  V30 18 2 17 19
M  V30 19 1 17 20
M  V30 20 1 20 21
M  V30 21 1 6 7
M  V30 22 1 10 11
M  V30 23 2 14 15
M  V30 24 1 18 19
M  V30 END BOND
M  V30 END CTAB
M  END
>  <Molecule Name>
CHEMBL4563301

>  <smiles_curated>
OCc1cccn2c(C3(c4ccc(Cl)cc4)CC3)nnc12

>  <pchembl_value>
4.6

>  <target_organism>
Homo sapiens

>  <standard_type>
EC50

>  <target_pref_name>
Pregnane X receptor

>  <assay_description>
Activation of PXR (unknown origin)

>  <activity>
0

$$$$
CHEMBL1545718
Actelion Java MolfileCreator 2.0

  0  0  0  0  0  0              0 V3000
M  V30 BEGIN CTAB
M  V30 COUNTS 26 29 0 0 0
M  V30 BEGIN ATOM
M  V30 1 O 0.0 0.0 0.0 0
M  V30 2 C 1.1937 -0.866 0.0 0
M  V30 3 N 2.5513 -0.2457 0.0 0
M  V30 4 N 1.0299 -2.3407 0.0 0
M  V30 5 C 2.6918 1.2522 0.0 0
M  V30 6 C -0.3511 -2.9376 0.0 0
M  V30 7 C 1.4746 2.1417 0.0 0
M  V30 8 C 4.0494 1.8725 0.0 0
M  V30 9 C -1.5682 -2.0481 0.0 0
M  V30 10 C -0.5149 -4.4122 0.0 0
M  V30 11 O 0.0936 1.5448 0.0 0
M  V30 12 C 1.6151 3.6398 0.0 0
M  V30 13 C 4.1899 3.3706 0.0 0
M  V30 14 C -2.9493 -2.645 0.0 0
M  V30 15 C -1.8959 -5.0091 0.0 0
M  V30 16 C -1.1235 2.4343 0.0 0
M  V30 17 C 2.9727 4.2601 0.0 0
M  V30 18 O 5.3836 4.2601 0.0 0
M  V30 19 C -3.1131 -4.1196 0.0 0
M  V30 20 C 3.4174 5.6879 0.0 0
M  V30 21 C 4.9155 5.6879 0.0 0
M  V30 22 C -4.4941 -4.7165 0.0 0
M  V30 23 C 2.6567 6.9987 0.0 0
M  V30 24 C 5.6528 6.9987 0.0 0
M  V30 25 C 3.394 8.3095 0.0 0
M  V30 26 C 4.8921 8.3095 0.0 0
M  V30 END ATOM
M  V30 BEGIN BOND
M  V30 1 2 1 2
M  V30 2 1 2 3
M  V30 3 1 2 4
M  V30 4 1 3 5
M  V30 5 1 4 6
M  V30 6 2 5 7
M  V30 7 1 5 8
M  V30 8 2 6 9
M  V30 9 1 6 10
M  V30 10 1 7 11
M  V30 11 1 7 12
M  V30 12 2 8 13
M  V30 13 1 9 14
M  V30 14 2 10 15
M  V30 15 1 11 16
M  V30 16 2 12 17
M  V30 17 1 13 18
M  V30 18 2 14 19
M  V30 19 1 17 20
M  V30 20 1 18 21
M  V30 21 1 19 22
M  V30 22 1 20 23
M  V30 23 1 21 24
M  V30 24 2 23 25
M  V30 25 2 24 26
M  V30 26 1 13 17
M  V30 27 1 15 19
M  V30 28 2 20 21
M  V30 29 1 25 26
M  V30 END BOND
M  V30 END CTAB
M  END
>  <Molecule Name>
CHEMBL1545718

>  <smiles_curated>
COc1cc2c(cc1NC(=O)Nc1ccc(C)cc1)oc1ccccc12

>  <pchembl_value>
4.0

>  <target_organism>
Homo sapiens

>  <standard_type>
EC50

>  <target_pref_name>
Pregnane X receptor

>  <assay_description>
PUBCHEM_BIOASSAY: Luminescence-based counterscreen for activators of the Aryl Hydrocarbon Receptor (AHR): cell-based high throughput dose response screening assay for activators of the Pregnane X Receptor (PXR). (Class of assay: confirmatory) [Related pubchem assays: 2796 (Primary screen (AHR activators in singlicate)), 2845 (Confirmation screen (AHR activators in triplicate)), 434939 (Counterscreen (PXR activators in triplicate)), 2804 (Summary (AHR activators))]

>  <activity>
0

$$$$
CHEMBL2398722
Actelion Java MolfileCreator 2.0

  0  0  0  0  0  0              0 V3000
M  V30 BEGIN CTAB
M  V30 COUNTS 31 33 0 0 0
M  V30 BEGIN ATOM
M  V30 1 Cl 0.0 0.0 0.0 0
M  V30 2 C 1.4059 -0.5004 0.0 0
M  V30 3 C 1.6561 -1.9778 0.0 0
M  V30 4 C 2.5497 0.4885 0.0 0
M  V30 5 C 3.0621 -2.4783 0.0 0
M  V30 6 C 3.9557 -0.0119 0.0 0
M  V30 7 C 4.2059 -1.4893 0.0 0
M  V30 8 C 5.6119 -1.9897 0.0 0 CFG=2
M  V30 9 O 5.8621 -0.4885 0.0 0
M  V30 10 C 4.8493 -3.2885 0.0 0
M  V30 11 C 7.1132 -1.9778 0.0 0
M  V30 12 C 5.6 -4.5872 0.0 0
M  V30 13 C 3.6817 -4.2536 0.0 0
M  V30 14 C 3.7412 -2.7404 0.0 0
M  V30 15 C 7.8638 -3.2766 0.0 0
M  V30 16 N 7.1012 -4.5753 0.0 0
M  V30 17 C 7.8519 -5.874 0.0 0
M  V30 18 O 9.3532 -5.8621 0.0 0
M  V30 19 C 7.0893 -7.1727 0.0 0 CFG=2
M  V30 20 N 5.5642 -7.1608 0.0 0
M  V30 21 C 7.84 -8.4715 0.0 0
M  V30 22 C 4.8017 -8.4595 0.0 0
M  V30 23 C 7.0774 -9.7702 0.0 0
M  V30 24 C 9.3412 -8.4595 0.0 0
M  V30 25 O 5.5523 -9.7583 0.0 0
M  V30 26 C 3.2766 -8.4476 0.0 0 CFG=1
M  V30 27 C 2.371 -7.2085 0.0 0 CFG=1
M  V30 28 C 2.371 -9.663 0.0 0
M  V30 29 O 2.8238 -5.7549 0.0 0
M  V30 30 C 0.9174 -7.6612 0.0 0
M  V30 31 C 0.9174 -9.1864 0.0 0
M  V30 END ATOM
M  V30 BEGIN BOND
M  V30 1 1 1 2
M  V30 2 2 2 3
M  V30 3 1 2 4
M  V30 4 1 3 5
M  V30 5 2 4 6
M  V30 6 2 5 7
M  V30 7 1 7 8
M  V30 8 1 8 9 CFG=3
M  V30 9 1 8 10
M  V30 10 1 8 11
M  V30 11 1 10 12
M  V30 12 1 10 13
M  V30 13 1 10 14
M  V30 14 1 11 15
M  V30 15 1 12 16
M  V30 16 1 16 17
M  V30 17 2 17 18
M  V30 18 1 17 19
M  V30 19 1 19 20 CFG=1
M  V30 20 1 19 21
M  V30 21 1 20 22
M  V30 22 1 21 23
M  V30 23 1 21 24
M  V30 24 2 22 25
M  V30 25 1 26 22 CFG=3
M  V30 26 1 26 27
M  V30 27 1 26 28
M  V30 28 1 27 29 CFG=3
M  V30 29 1 27 30
M  V30 30 1 28 31
M  V30 31 1 6 7
M  V30 32 1 15 16
M  V30 33 1 30 31
M  V30 END BOND
M  V30 BEGIN COLLECTION
M  V30 MDLV30/STEABS ATOMS=(4 8 19 26 27)
M  V30 END COLLECTION
M  V30 END CTAB
M  END
>  <Molecule Name>
CHEMBL2398722

>  <smiles_curated>
CC(C)[C@@H](NC(=O)[C@@H]1CCC[C@@H]1O)C(=O)N1CC[C@](O)(c2ccc(Cl)cc2)C(C)(C)C1

>  <pchembl_value>
5.85

>  <target_organism>
Homo sapiens

>  <standard_type>
EC50

>  <target_pref_name>
Pregnane X receptor

>  <assay_description>
Induction of PXR (unknown origin)

>  <activity>
0

$$$$
CHEMBL1597
Actelion Java MolfileCreator 2.0

  0  0  0  0  0  0              0 V3000
M  V30 BEGIN CTAB
M  V30 COUNTS 6 5 0 0 0
M  V30 BEGIN ATOM
M  V30 1 S 0.0 0.0 0.0 0
M  V30 2 C -0.0118 -1.4903 0.0 0 CFG=2
M  V30 3 C 1.2774 -2.2355 0.0 0
M  V30 4 C -1.3247 -2.2355 0.0 0
M  V30 5 S 2.5667 -1.4785 0.0 0
M  V30 6 O -2.6377 -1.4785 0.0 0
M  V30 END ATOM
M  V30 BEGIN BOND
M  V30 1 1 2 1 CFG=3
M  V30 2 1 2 3
M  V30 3 1 2 4
M  V30 4 1 3 5
M  V30 5 1 4 6
M  V30 END BOND
M  V30 BEGIN COLLECTION
M  V30 MDLV30/STERAC1 ATOMS=(1 2)
M  V30 END COLLECTION
M  V30 END CTAB
M  END
>  <Molecule Name>
CHEMBL1597

>  <smiles_curated>
OCC(S)CS

>  <pchembl_value>
4.8

>  <target_organism>
Homo sapiens

>  <standard_type>
EC50

>  <target_pref_name>
Pregnane X receptor

>  <assay_description>
Activation of human PXR expressed in human HepG2 (DPX-2) cells assessed as induction of CYP3A4 after 24 hrs by luminescent analysis,Competitive binding affinity to human PXR LBD (111 to 434) by TR-FRET assay

>  <activity>
0

$$$$
CHEMBL1475693
Actelion Java MolfileCreator 2.0

  0  0  0  0  0  0              0 V3000
M  V30 BEGIN CTAB
M  V30 COUNTS 28 30 0 0 0
M  V30 BEGIN ATOM
M  V30 1 O 0.0 0.0 0.0 0
M  V30 2 C 1.2021 0.8956 0.0 0
M  V30 3 N 1.1903 2.4042 0.0 0
M  V30 4 C 2.6163 0.4478 0.0 0
M  V30 5 N 2.6045 2.8756 0.0 0
M  V30 6 C -0.0353 3.2998 0.0 0
M  V30 7 C 3.4884 1.6735 0.0 0
M  V30 8 C 3.0641 -0.9663 0.0 0
M  V30 9 C 3.0523 4.3134 0.0 0
M  V30 10 C 0.106 4.7966 0.0 0
M  V30 11 C -1.4142 2.6988 0.0 0
M  V30 12 C 4.9733 1.6852 0.0 0
M  V30 13 C 4.4666 -1.4378 0.0 0
M  V30 14 C 2.0506 -2.0624 0.0 0
M  V30 15 C -1.1196 5.6923 0.0 0
M  V30 16 C -2.6399 3.5945 0.0 0
M  V30 17 N 5.7158 0.4007 0.0 0
M  V30 18 C -2.4984 5.0912 0.0 0
M  V30 19 C 7.2008 0.4124 0.0 0 CFG=2
M  V30 20 C 5.1148 -0.9663 0.0 0
M  V30 21 C 7.9432 1.7206 0.0 0
M  V30 22 C 7.9432 -0.8721 0.0 0
M  V30 23 C 7.189 3.0288 0.0 0
M  V30 24 C 7.9315 4.3369 0.0 0
M  V30 25 C 5.6805 3.0406 0.0 0
M  V30 26 C 7.1772 5.6451 0.0 0
M  V30 27 C 4.9262 4.3487 0.0 0
M  V30 28 C 5.6687 5.6569 0.0 0
M  V30 END ATOM
M  V30 BEGIN BOND
M  V30 1 2 1 2
M  V30 2 1 2 3
M  V30 3 1 2 4
M  V30 4 1 3 5
M  V30 5 1 3 6
M  V30 6 2 4 7
M  V30 7 1 4 8
M  V30 8 1 5 9
M  V30 9 2 6 10
M  V30 10 1 6 11
M  V30 11 1 7 12
M  V30 12 1 8 13
M  V30 13 1 8 14
M  V30 14 1 10 15
M  V30 15 2 11 16
M  V30 16 1 12 17
M  V30 17 2 15 18
M  V30 18 1 19 17 CFG=3
M  V30 19 1 17 20
M  V30 20 1 19 21
M  V30 21 1 19 22
M  V30 22 1 21 23
M  V30 23 2 23 24
M  V30 24 1 23 25
M  V30 25 1 24 26
M  V30 26 2 25 27
M  V30 27 2 26 28
M  V30 28 1 5 7
M  V30 29 1 16 18
M  V30 30 1 27 28
M  V30 END BOND
M  V30 BEGIN COLLECTION
M  V30 MDLV30/STERAC1 ATOMS=(1 19)
M  V30 END COLLECTION
M  V30 END CTAB
M  END
>  <Molecule Name>
CHEMBL1475693

>  <smiles_curated>
CC(C)c1c(CN(C)C(C)Cc2ccccc2)n(C)n(-c2ccccc2)c1=O

>  <pchembl_value>
5.68

>  <target_organism>
Homo sapiens

>  <standard_type>
EC50

>  <target_pref_name>
Pregnane X receptor

>  <assay_description>
Activation of PXR in human cryopreserved hepatocytes assessed as induction of CYP3A4,Activation of human PXR expressed in human HepG2 (DPX-2) cells after 24 hrs by luciferase reporter gene based luminescent analysis,Activation of human PXR expressed in human HepG2 (DPX-2) cells assessed as induction of CYP3A4 after 24 hrs by luminescent analysis,Competitive binding affinity to human PXR LBD (111 to 434) by TR-FRET assay

>  <activity>
0

$$$$
CHEMBL1483899
Actelion Java MolfileCreator 2.0

  0  0  0  0  0  0              0 V3000
M  V30 BEGIN CTAB
M  V30 COUNTS 32 36 0 0 0
M  V30 BEGIN ATOM
M  V30 1 O 0.0 0.0 0.0 0
M  V30 2 C 0.7472 -1.2929 0.0 0
M  V30 3 C -1.5182 0.0118 0.0 0
M  V30 4 C -0.0118 -2.5858 0.0 0
M  V30 5 C -2.2774 -1.281 0.0 0
M  V30 6 N -1.5301 -2.5739 0.0 0
M  V30 7 C -2.2892 -3.8668 0.0 0
M  V30 8 C -1.542 -5.1597 0.0 0
M  V30 9 C -3.8075 -3.855 0.0 0
M  V30 10 C -2.3011 -6.4526 0.0 0
M  V30 11 C -4.5666 -5.1479 0.0 0
M  V30 12 C -1.8504 -7.876 0.0 0
M  V30 13 C -3.8194 -6.4408 0.0 0
M  V30 14 C -0.427 -8.3268 0.0 0
M  V30 15 C -3.084 -8.7538 0.0 0
M  V30 16 O -4.2938 -7.8642 0.0 0
M  V30 17 C 0.9963 -8.7775 0.0 0
M  V30 18 C -3.0958 -10.2483 0.0 0
M  V30 19 C 2.4197 -9.2282 0.0 0
M  V30 20 C -4.4124 -10.9956 0.0 0
M  V30 21 C -1.8029 -10.9956 0.0 0
M  V30 22 C 2.7162 -10.6872 0.0 0
M  V30 23 C 3.5228 -8.2081 0.0 0
M  V30 24 C -4.4243 -12.4902 0.0 0
M  V30 25 C -1.8148 -12.4902 0.0 0
M  V30 26 C 4.1396 -11.1379 0.0 0
M  V30 27 C 4.9462 -8.6589 0.0 0
M  V30 28 C -3.1314 -13.2374 0.0 0
M  V30 29 C 5.2428 -10.1179 0.0 0
M  V30 30 O -3.1433 -14.732 0.0 0
M  V30 31 N 6.6661 -10.5686 0.0 0
M  V30 32 C -4.4599 -15.4793 0.0 0
M  V30 END ATOM
M  V30 BEGIN BOND
M  V30 1 1 1 2
M  V30 2 1 1 3
M  V30 3 1 2 4
M  V30 4 1 3 5
M  V30 5 1 4 6
M  V30 6 1 6 7
M  V30 7 2 7 8
M  V30 8 1 7 9
M  V30 9 1 8 10
M  V30 10 2 9 11
M  V30 11 1 10 12
M  V30 12 2 10 13
M  V30 13 1 12 14
M  V30 14 2 12 15
M  V30 15 1 13 16
M  V30 16 3 14 17
M  V30 17 1 15 18
M  V30 18 1 17 19
M  V30 19 2 18 20
M  V30 20 1 18 21
M  V30 21 2 19 22
M  V30 22 1 19 23
M  V30 23 1 20 24
M  V30 24 2 21 25
M  V30 25 1 22 26
M  V30 26 2 23 27
M  V30 27 2 24 28
M  V30 28 2 26 29
M  V30 29 1 28 30
M  V30 30 1 29 31
M  V30 31 1 30 32
M  V30 32 1 5 6
M  V30 33 1 11 13
M  V30 34 1 15 16
M  V30 35 1 25 28
M  V30 36 1 27 29
M  V30 END BOND
M  V30 END CTAB
M  END
>  <Molecule Name>
CHEMBL1483899

>  <smiles_curated>
COc1ccc(-c2c(C#Cc3ccc(N)cc3)c3cc(N4CCOCC4)ccc3o2)cc1

>  <pchembl_value>
4.02

>  <target_organism>
Homo sapiens

>  <standard_type>
EC50

>  <target_pref_name>
Pregnane X receptor

>  <assay_description>
PUBCHEM_BIOASSAY: Luminescence-based counterscreen for activators of the Aryl Hydrocarbon Receptor (AHR): cell-based high throughput dose response screening assay for activators of the Pregnane X Receptor (PXR). (Class of assay: confirmatory) [Related pubchem assays: 2796 (Primary screen (AHR activators in singlicate)), 2845 (Confirmation screen (AHR activators in triplicate)), 434939 (Counterscreen (PXR activators in triplicate)), 2804 (Summary (AHR activators))]

>  <activity>
0

$$$$
CHEMBL4435054
Actelion Java MolfileCreator 2.0

  0  0  0  0  0  0              0 V3000
M  V30 BEGIN CTAB
M  V30 COUNTS 32 34 0 0 0
M  V30 BEGIN ATOM
M  V30 1 S 0.0 0.0 0.0 0
M  V30 2 O -1.3139 0.7575 0.0 0
M  V30 3 O 1.2902 -0.7457 0.0 0
M  V30 4 N 0.7457 1.3139 0.0 0
M  V30 5 C -0.7575 -1.2902 0.0 0
M  V30 6 C 2.2372 1.3257 0.0 0
M  V30 7 C -0.0118 -2.5805 0.0 0
M  V30 8 C -2.2727 -1.2784 0.0 0
M  V30 9 N 3.1131 0.1183 0.0 0
M  V30 10 C 3.1131 2.5568 0.0 0
M  V30 11 F 1.4796 -2.5686 0.0 0
M  V30 12 C -0.7694 -3.8707 0.0 0
M  V30 13 F -3.0303 0.0355 0.0 0
M  V30 14 C -3.0303 -2.5686 0.0 0
M  V30 15 C 4.5336 0.5918 0.0 0
M  V30 16 S 4.5336 2.107 0.0 0
M  V30 17 C -2.2845 -3.8589 0.0 0
M  V30 18 N -3.0421 -5.1491 0.0 0
M  V30 19 C -2.2964 -6.4394 0.0 0
M  V30 20 C -3.0539 -7.7296 0.0 0
M  V30 21 C -4.5691 -7.7178 0.0 0
M  V30 22 C -2.3082 -9.0199 0.0 0
M  V30 23 F -5.3267 -6.4039 0.0 0
M  V30 24 C -5.3267 -9.0081 0.0 0
M  V30 25 C -3.0658 -10.3102 0.0 0
M  V30 26 C -0.8167 -9.0081 0.0 0
M  V30 27 C -4.5809 -10.2983 0.0 0
M  V30 28 N -0.071 -10.2983 0.0 0
M  V30 29 C -0.8286 -11.5886 0.0 0
M  V30 30 C 1.4204 -10.2865 0.0 0
M  V30 31 C -0.0828 -12.8788 0.0 0
M  V30 32 C -2.3437 -11.5767 0.0 0
M  V30 END ATOM
M  V30 BEGIN BOND
M  V30 1 2 1 2
M  V30 2 2 1 3
M  V30 3 1 1 4
M  V30 4 1 1 5
M  V30 5 1 4 6
M  V30 6 2 5 7
M  V30 7 1 5 8
M  V30 8 1 6 9
M  V30 9 2 6 10
M  V30 10 1 7 11
M  V30 11 1 7 12
M  V30 12 1 8 13
M  V30 13 2 8 14
M  V30 14 2 9 15
M  V30 15 1 10 16
M  V30 16 2 12 17
M  V30 17 1 17 18
M  V30 18 1 18 19
M  V30 19 1 19 20
M  V30 20 2 20 21
M  V30 21 1 20 22
M  V30 22 1 21 23
M  V30 23 1 21 24
M  V30 24 2 22 25
M  V30 25 1 22 26
M  V30 26 2 24 27
M  V30 27 1 26 28
M  V30 28 1 28 29
M  V30 29 1 28 30
M  V30 30 1 29 31
M  V30 31 1 29 32
M  V30 32 1 14 17
M  V30 33 1 15 16
M  V30 34 1 25 27
M  V30 END BOND
M  V30 END CTAB
M  END
>  <Molecule Name>
CHEMBL4435054

>  <smiles_curated>
CC(C)N(C)Cc1cccc(F)c1CNc1cc(F)c(S(=O)(=O)Nc2cscn2)c(F)c1

>  <pchembl_value>
5.39

>  <target_organism>
Homo sapiens

>  <standard_type>
EC50

>  <target_pref_name>
Pregnane X receptor

>  <assay_description>
Agonist activity at PXR in human DPX2 cells after 24 hrs by luciferase reporter gene assay

>  <activity>
0

$$$$
CHEMBL3622898
Actelion Java MolfileCreator 2.0

  0  0  0  0  0  0              0 V3000
M  V30 BEGIN CTAB
M  V30 COUNTS 31 34 0 0 0
M  V30 BEGIN ATOM
M  V30 1 Cl 0.0 0.0 0.0 0
M  V30 2 C 1.4914 0.0118 0.0 0
M  V30 3 N 2.2371 1.3257 0.0 0
M  V30 4 C 2.2371 -1.2783 0.0 0
M  V30 5 C 3.7286 1.3375 0.0 0
M  V30 6 C 3.7286 -1.2665 0.0 0
M  V30 7 C 1.4796 -2.5686 0.0 0
M  V30 8 O 4.4743 2.6514 0.0 0
M  V30 9 N 4.4743 0.0473 0.0 0
M  V30 10 N 4.4743 -2.5567 0.0 0
M  V30 11 C 5.9658 2.6633 0.0 0
M  V30 12 C 3.7168 -3.847 0.0 0
M  V30 13 C 6.7115 3.9772 0.0 0
M  V30 14 C 4.4625 -5.1372 0.0 0
M  V30 15 C 8.203 3.989 0.0 0
M  V30 16 S 3.8351 -6.4985 0.0 0
M  V30 17 C 5.9421 -5.2793 0.0 0
M  V30 18 C 8.9487 5.3029 0.0 0
M  V30 19 C 4.936 -7.4928 0.0 0
M  V30 20 N 6.2381 -6.7352 0.0 0
M  V30 21 C 6.9364 -4.1547 0.0 0
M  V30 22 N 8.1912 6.6168 0.0 0
M  V30 23 C 10.4402 5.3148 0.0 0
M  V30 24 C 4.7703 -8.9724 0.0 0
M  V30 25 C 8.9369 7.9308 0.0 0
M  V30 26 C 11.1859 6.6287 0.0 0
M  V30 27 C 10.4284 7.9426 0.0 0
M  V30 28 C 8.1793 9.2447 0.0 0
M  V30 29 C 11.1741 9.2565 0.0 0
M  V30 30 C 8.9251 10.5586 0.0 0
M  V30 31 C 10.4165 10.5704 0.0 0
M  V30 END ATOM
M  V30 BEGIN BOND
M  V30 1 1 1 2
M  V30 2 2 2 3
M  V30 3 1 2 4
M  V30 4 1 3 5
M  V30 5 2 4 6
M  V30 6 1 4 7
M  V30 7 1 5 8
M  V30 8 2 5 9
M  V30 9 1 6 10
M  V30 10 1 8 11
M  V30 11 1 10 12
M  V30 12 1 11 13
M  V30 13 1 12 14
M  V30 14 1 13 15
M  V30 15 1 14 16
M  V30 16 2 14 17
M  V30 17 1 15 18
M  V30 18 1 16 19
M  V30 19 1 17 20
M  V30 20 1 17 21
M  V30 21 2 18 22
M  V30 22 1 18 23
M  V30 23 1 19 24
M  V30 24 1 22 25
M  V30 25 2 23 26
M  V30 26 1 25 27
M  V30 27 2 25 28
M  V30 28 2 27 29
M  V30 29 1 28 30
M  V30 30 1 29 31
M  V30 31 1 6 9
M  V30 32 2 19 20
M  V30 33 1 26 27
M  V30 34 2 30 31
M  V30 END BOND
M  V30 END CTAB
M  END
>  <Molecule Name>
CHEMBL3622898

>  <smiles_curated>
Cc1nc(C)c(CNc2nc(OCCCc3ccc4ccccc4n3)nc(Cl)c2C)s1

>  <pchembl_value>
5.64

>  <target_organism>
Homo sapiens

>  <standard_type>
EC50

>  <target_pref_name>
Pregnane X receptor

>  <assay_description>
Activation of PXR (unknown origin)

>  <activity>
0

$$$$
CHEMBL408
Actelion Java MolfileCreator 2.0

  0  0  0  0  0  0              0 V3000
M  V30 BEGIN CTAB
M  V30 COUNTS 31 34 0 0 0
M  V30 BEGIN ATOM
M  V30 1 S 0.0 0.0 0.0 0
M  V30 2 C 1.4963 0.0593 0.0 0
M  V30 3 C -0.4275 -1.4369 0.0 0
M  V30 4 O 2.3276 1.3181 0.0 0
M  V30 5 N 1.9951 -1.3419 0.0 0
M  V30 6 C 0.8075 -2.2682 0.0 0
M  V30 7 C -1.8526 -1.9357 0.0 0
M  V30 8 O 0.8431 -3.7645 0.0 0
M  V30 9 C -2.1257 -3.4083 0.0 0
M  V30 10 C -0.9856 -4.3702 0.0 0
M  V30 11 C -3.5508 -3.907 0.0 0
M  V30 12 C -1.2588 -5.8428 0.0 0
M  V30 13 C -3.8239 -5.3796 0.0 0
M  V30 14 C -2.6838 -6.3416 0.0 0
M  V30 15 O -2.957 -7.8141 0.0 0
M  V30 16 C -4.3821 -8.3129 0.0 0
M  V30 17 C -4.6552 -9.7855 0.0 0
M  V30 18 O -5.4153 -11.0799 0.0 0
M  V30 19 C -3.1589 -9.7736 0.0 0
M  V30 20 C -6.0803 -9.263 0.0 0
M  V30 21 C -4.6671 -12.3744 0.0 0
M  V30 22 C -2.4107 -11.0681 0.0 0
M  V30 23 C -3.1708 -12.3625 0.0 0
M  V30 24 C -5.4271 -13.6688 0.0 0
M  V30 25 C -2.4226 -13.657 0.0 0
M  V30 26 C -4.679 -14.9633 0.0 0
M  V30 27 C -6.9472 -13.657 0.0 0
M  V30 28 C -3.1826 -14.9514 0.0 0
M  V30 29 C -0.9263 -13.6451 0.0 0
M  V30 30 C -5.439 -16.2577 0.0 0
M  V30 31 O -2.4345 -16.2459 0.0 0
M  V30 END ATOM
M  V30 BEGIN BOND
M  V30 1 1 1 2
M  V30 2 1 1 3
M  V30 3 2 2 4
M  V30 4 1 2 5
M  V30 5 1 3 6
M  V30 6 1 3 7
M  V30 7 2 6 8
M  V30 8 1 7 9
M  V30 9 2 9 10
M  V30 10 1 9 11
M  V30 11 1 10 12
M  V30 12 2 11 13
M  V30 13 2 12 14
M  V30 14 1 14 15
M  V30 15 1 15 16
M  V30 16 1 16 17
M  V30 17 1 17 18
M  V30 18 1 17 19
M  V30 19 1 17 20
M  V30 20 1 18 21
M  V30 21 1 19 22
M  V30 22 2 21 23
M  V30 23 1 21 24
M  V30 24 1 23 25
M  V30 25 2 24 26
M  V30 26 1 24 27
M  V30 27 2 25 28
M  V30 28 1 25 29
M  V30 29 1 26 30
M  V30 30 1 28 31
M  V30 31 1 5 6
M  V30 32 1 13 14
M  V30 33 1 22 23
M  V30 34 1 26 28
M  V30 END BOND
M  V30 END CTAB
M  END
>  <Molecule Name>
CHEMBL408

>  <smiles_curated>
Cc1c(C)c2c(CCC(C)(COc3ccc(CC4SC(=O)NC4=O)cc3)O2)c(C)c1O

>  <pchembl_value>
5.05

>  <target_organism>
Homo sapiens

>  <standard_type>
EC50

>  <target_pref_name>
Pregnane X receptor

>  <assay_description>
Activation of human PXR expressed in human HepG2 (DPX-2) cells after 24 hrs by luciferase reporter gene based luminescent analysis,Activation of human PXR expressed in human HepG2 (DPX-2) cells assessed as induction of CYP3A4 after 24 hrs by luminescent analysis,Competitive binding affinity to human PXR LBD (111 to 434) by TR-FRET assay

>  <activity>
0

$$$$
CHEMBL347036
Actelion Java MolfileCreator 2.0

  0  0  0  0  0  0              0 V3000
M  V30 BEGIN CTAB
M  V30 COUNTS 26 27 0 0 0
M  V30 BEGIN ATOM
M  V30 1 O 0.0 0.0 0.0 0
M  V30 2 C 1.2892 -0.7333 0.0 0
M  V30 3 O 1.2774 -2.2237 0.0 0
M  V30 4 C 2.5785 0.0236 0.0 0
M  V30 5 C -0.0354 -2.957 0.0 0
M  V30 6 C 1.8215 1.3365 0.0 0
M  V30 7 C 3.8678 0.7806 0.0 0
M  V30 8 C 3.3119 -1.2656 0.0 0
M  V30 9 C -0.0473 -4.4474 0.0 0
M  V30 10 C 2.5549 2.6495 0.0 0
M  V30 11 C 0.3075 1.3484 0.0 0
M  V30 12 C 5.1571 0.0473 0.0 0
M  V30 13 C 3.856 2.2946 0.0 0
M  V30 14 C 4.8022 -1.2537 0.0 0
M  V30 15 N -1.3602 -5.1807 0.0 0
M  V30 16 C 1.7979 3.9624 0.0 0
M  V30 17 C -0.4494 2.6613 0.0 0
M  V30 18 C 6.4464 0.8043 0.0 0
M  V30 19 C 5.1453 3.0516 0.0 0
M  V30 20 C 5.5356 -2.543 0.0 0
M  V30 21 C -1.372 -6.6711 0.0 0
M  V30 22 C -2.6731 -4.4237 0.0 0
M  V30 23 C 0.2838 3.9743 0.0 0
M  V30 24 C 6.4345 2.3183 0.0 0
M  V30 25 C -2.685 -7.4045 0.0 0
M  V30 26 C -3.9861 -5.1571 0.0 0
M  V30 END ATOM
M  V30 BEGIN BOND
M  V30 1 2 1 2
M  V30 2 1 2 3
M  V30 3 1 2 4
M  V30 4 1 3 5
M  V30 5 1 4 6
M  V30 6 1 4 7
M  V30 7 1 4 8
M  V30 8 1 5 9
M  V30 9 2 6 10
M  V30 10 1 6 11
M  V30 11 2 7 12
M  V30 12 1 7 13
M  V30 13 1 8 14
M  V30 14 1 9 15
M  V30 15 1 10 16
M  V30 16 2 11 17
M  V30 17 1 12 18
M  V30 18 2 13 19
M  V30 19 1 14 20
M  V30 20 1 15 21
M  V30 21 1 15 22
M  V30 22 2 16 23
M  V30 23 2 18 24
M  V30 24 1 21 25
M  V30 25 1 22 26
M  V30 26 1 17 23
M  V30 27 1 19 24
M  V30 END BOND
M  V30 END CTAB
M  END
>  <Molecule Name>
CHEMBL347036

>  <smiles_curated>
CCCC(C(=O)OCCN(CC)CC)(c1ccccc1)c1ccccc1

>  <pchembl_value>
4.85

>  <target_organism>
Homo sapiens

>  <standard_type>
EC50

>  <target_pref_name>
Pregnane X receptor

>  <assay_description>
Activation of human PXR expressed in human HepG2 (DPX-2) cells after 24 hrs by luciferase reporter gene based luminescent analysis,Activation of human PXR expressed in human HepG2 (DPX-2) cells assessed as induction of CYP3A4 after 24 hrs by luminescent analysis,Competitive binding affinity to human PXR LBD (111 to 434) by TR-FRET assay

>  <activity>
0

$$$$
CHEMBL493241
Actelion Java MolfileCreator 2.0

  0  0  0  0  0  0              0 V3000
M  V30 BEGIN CTAB
M  V30 COUNTS 31 32 0 0 0
M  V30 BEGIN ATOM
M  V30 1 Cl 0.0 0.0 0.0 0
M  V30 2 C -0.7757 -1.3212 0.0 0
M  V30 3 C -2.3273 -1.3091 0.0 0
M  V30 4 C -0.0121 -2.6425 0.0 0
M  V30 5 O -3.1031 0.0363 0.0 0
M  V30 6 C -3.1031 -2.6303 0.0 0
M  V30 7 C -0.7879 -3.9637 0.0 0
M  V30 8 Cl -4.6547 -2.6182 0.0 0
M  V30 9 C -2.3394 -3.9516 0.0 0
M  V30 10 C -0.0242 -5.285 0.0 0
M  V30 11 N -0.8 -6.6062 0.0 0
M  V30 12 C -2.3515 -6.5941 0.0 0
M  V30 13 C -0.0363 -7.9275 0.0 0
M  V30 14 C -3.1273 -5.2486 0.0 0
M  V30 15 C -3.1273 -7.9154 0.0 0
M  V30 16 C -0.8121 -9.2488 0.0 0
M  V30 17 C -4.6789 -5.2365 0.0 0
M  V30 18 C -4.6789 -7.9033 0.0 0
M  V30 19 C -0.0484 -10.57 0.0 0
M  V30 20 C -5.4547 -6.5578 0.0 0
M  V30 21 C -0.8242 -11.8913 0.0 0
M  V30 22 C -7.0063 -6.5456 0.0 0
M  V30 23 O -7.0184 -4.9941 0.0 0
M  V30 24 C -8.5578 -6.5335 0.0 0
M  V30 25 C -7.0184 -8.073 0.0 0
M  V30 26 F -10.1094 -6.5214 0.0 0
M  V30 27 F -8.5699 -4.9819 0.0 0
M  V30 28 F -8.679 -7.4184 0.0 0
M  V30 29 F -7.0305 -9.6003 0.0 0
M  V30 30 F -5.5395 -8.4366 0.0 0
M  V30 31 F -7.9275 -8.1699 0.0 0
M  V30 END ATOM
M  V30 BEGIN BOND
M  V30 1 1 1 2
M  V30 2 2 2 3
M  V30 3 1 2 4
M  V30 4 1 3 5
M  V30 5 1 3 6
M  V30 6 2 4 7
M  V30 7 1 6 8
M  V30 8 2 6 9
M  V30 9 1 7 10
M  V30 10 1 10 11
M  V30 11 1 11 12
M  V30 12 1 11 13
M  V30 13 2 12 14
M  V30 14 1 12 15
M  V30 15 1 13 16
M  V30 16 1 14 17
M  V30 17 2 15 18
M  V30 18 1 16 19
M  V30 19 2 17 20
M  V30 20 1 19 21
M  V30 21 1 20 22
M  V30 22 1 22 23
M  V30 23 1 22 24
M  V30 24 1 22 25
M  V30 25 1 24 26
M  V30 26 1 24 27
M  V30 27 1 24 28
M  V30 28 1 25 29
M  V30 29 1 25 30
M  V30 30 1 25 31
M  V30 31 1 7 9
M  V30 32 1 18 20
M  V30 END BOND
M  V30 END CTAB
M  END
>  <Molecule Name>
CHEMBL493241

>  <smiles_curated>
CCCCN(Cc1cc(Cl)c(O)c(Cl)c1)c1ccc(C(O)(C(F)(F)F)C(F)(F)F)cc1

>  <pchembl_value>
6.6

>  <target_organism>
Homo sapiens

>  <standard_type>
EC50

>  <target_pref_name>
Pregnane X receptor

>  <assay_description>
Inhibition of human PXR

>  <activity>
1

$$$$
CHEMBL490592
Actelion Java MolfileCreator 2.0

  0  0  0  0  0  0              0 V3000
M  V30 BEGIN CTAB
M  V30 COUNTS 18 20 0 0 0
M  V30 BEGIN ATOM
M  V30 1 S 0.0 0.0 0.0 0
M  V30 2 C -0.625 -1.3561 0.0 0
M  V30 3 C -1.1202 1.0141 0.0 0
M  V30 4 N -2.1226 -1.191 0.0 0
M  V30 5 N 0.1179 -2.6415 0.0 0
M  V30 6 C -2.4292 0.2712 0.0 0
M  V30 7 C 1.6037 -2.6297 0.0 0
M  V30 8 C -3.8089 0.8962 0.0 0
M  V30 9 C 2.3467 -3.9151 0.0 0
M  V30 10 C 2.3467 -1.3207 0.0 0
M  V30 11 N -5.0354 0.0235 0.0 0
M  V30 12 C -3.974 2.3938 0.0 0
M  V30 13 C 3.8325 -3.9033 0.0 0
M  V30 14 C 3.8325 -1.3089 0.0 0
M  V30 15 C -6.4151 0.6485 0.0 0
M  V30 16 C -5.3538 3.0188 0.0 0
M  V30 17 C 4.5754 -2.5943 0.0 0
M  V30 18 C -6.5802 2.1462 0.0 0
M  V30 END ATOM
M  V30 BEGIN BOND
M  V30 1 1 1 2
M  V30 2 1 1 3
M  V30 3 2 2 4
M  V30 4 1 2 5
M  V30 5 2 3 6
M  V30 6 1 5 7
M  V30 7 1 6 8
M  V30 8 2 7 9
M  V30 9 1 7 10
M  V30 10 2 8 11
M  V30 11 1 8 12
M  V30 12 1 9 13
M  V30 13 2 10 14
M  V30 14 1 11 15
M  V30 15 2 12 16
M  V30 16 2 13 17
M  V30 17 2 15 18
M  V30 18 1 4 6
M  V30 19 1 14 17
M  V30 20 1 16 18
M  V30 END BOND
M  V30 END CTAB
M  END
>  <Molecule Name>
CHEMBL490592

>  <smiles_curated>
c1ccc(Nc2nc(-c3ccccn3)cs2)cc1

>  <pchembl_value>
4.13

>  <target_organism>
Homo sapiens

>  <standard_type>
EC50

>  <target_pref_name>
Pregnane X receptor

>  <assay_description>
PUBCHEM_BIOASSAY: Luminescence-based counterscreen for activators of the Aryl Hydrocarbon Receptor (AHR): cell-based high throughput dose response screening assay for activators of the Pregnane X Receptor (PXR). (Class of assay: confirmatory) [Related pubchem assays: 2796 (Primary screen (AHR activators in singlicate)), 2845 (Confirmation screen (AHR activators in triplicate)), 434939 (Counterscreen (PXR activators in triplicate)), 2804 (Summary (AHR activators))]

>  <activity>
0

$$$$
CHEMBL3318969
Actelion Java MolfileCreator 2.0

  0  0  0  0  0  0              0 V3000
M  V30 BEGIN CTAB
M  V30 COUNTS 30 34 0 0 0
M  V30 BEGIN ATOM
M  V30 1 Cl 0.0 0.0 0.0 0
M  V30 2 C -0.8057 -1.2678 0.0 0
M  V30 3 C -0.1066 -2.5831 0.0 0
M  V30 4 C -2.3224 -1.2086 0.0 0
M  V30 5 C -0.9123 -3.8509 0.0 0
M  V30 6 C -3.1281 -2.4764 0.0 0
M  V30 7 C -2.429 -3.7917 0.0 0
M  V30 8 C -3.2348 -5.0595 0.0 0
M  V30 9 C -2.1328 -6.0548 0.0 0
M  V30 10 C -4.6448 -4.4789 0.0 0
M  V30 11 C -4.4315 -5.9719 0.0 0
M  V30 12 N -2.2987 -7.536 0.0 0
M  V30 13 N -0.6753 -5.7349 0.0 0
M  V30 14 N -0.936 -8.1403 0.0 0
M  V30 15 C 0.071 -7.0265 0.0 0
M  V30 16 C 0.071 -4.4197 0.0 0
M  V30 17 C 1.564 -7.0146 0.0 0
M  V30 18 C 1.564 -4.4078 0.0 0
M  V30 19 O 2.3105 -8.3062 0.0 0
M  V30 20 C 2.3105 -5.6994 0.0 0
M  V30 21 C 3.8035 -8.2943 0.0 0
M  V30 22 C 4.55 -9.5859 0.0 0
M  V30 23 C 4.55 -6.9791 0.0 0
M  V30 24 S 3.7917 -10.8774 0.0 0
M  V30 25 C 6.043 -9.574 0.0 0
M  V30 26 C 6.043 -6.9672 0.0 0
M  V30 27 O 2.4764 -10.1191 0.0 0
M  V30 28 O 5.0832 -11.6239 0.0 0
M  V30 29 C 3.0333 -12.169 0.0 0
M  V30 30 C 6.7895 -8.2588 0.0 0
M  V30 END ATOM
M  V30 BEGIN BOND
M  V30 1 1 1 2
M  V30 2 2 2 3
M  V30 3 1 2 4
M  V30 4 1 3 5
M  V30 5 2 4 6
M  V30 6 2 5 7
M  V30 7 1 7 8
M  V30 8 1 8 9
M  V30 9 1 8 10
M  V30 10 1 8 11
M  V30 11 2 9 12
M  V30 12 1 9 13
M  V30 13 1 12 14
M  V30 14 1 13 15
M  V30 15 1 13 16
M  V30 16 1 15 17
M  V30 17 2 16 18
M  V30 18 1 17 19
M  V30 19 2 17 20
M  V30 20 1 19 21
M  V30 21 2 21 22
M  V30 22 1 21 23
M  V30 23 1 22 24
M  V30 24 1 22 25
M  V30 25 2 23 26
M  V30 26 2 24 27
M  V30 27 2 24 28
M  V30 28 1 24 29
M  V30 29 2 25 30
M  V30 30 1 6 7
M  V30 31 1 10 11
M  V30 32 2 14 15
M  V30 33 1 18 20
M  V30 34 1 26 30
M  V30 END BOND
M  V30 END CTAB
M  END
>  <Molecule Name>
CHEMBL3318969

>  <smiles_curated>
CS(=O)(=O)c1ccccc1Oc1cccn2c(C3(c4ccc(Cl)cc4)CC3)nnc12

>  <pchembl_value>
6.16

>  <target_organism>
Homo sapiens

>  <standard_type>
EC50

>  <target_pref_name>
Pregnane X receptor

>  <assay_description>
Activation of PXR (unknown origin)

>  <activity>
1

$$$$
CHEMBL1835918
Actelion Java MolfileCreator 2.0

  0  0  0  0  0  0              0 V3000
M  V30 BEGIN CTAB
M  V30 COUNTS 25 28 0 0 0
M  V30 BEGIN ATOM
M  V30 1 O 0.0 0.0 0.0 0
M  V30 2 N 1.4222 -0.4503 0.0 0
M  V30 3 C -0.0118 1.517 0.0 0
M  V30 4 C 2.2992 0.7822 0.0 0
M  V30 5 N 1.4103 1.991 0.0 0
M  V30 6 C -1.2444 2.4177 0.0 0
M  V30 7 C 3.7925 0.794 0.0 0
M  V30 8 C 4.5392 2.1096 0.0 0
M  V30 9 C 4.5392 -0.4977 0.0 0
M  V30 10 C 6.0325 2.1214 0.0 0
M  V30 11 C 6.0325 -0.4859 0.0 0
M  V30 12 C 6.7792 0.8296 0.0 0
M  V30 13 O 8.2725 0.8414 0.0 0
M  V30 14 C 9.0191 -0.4503 0.0 0
M  V30 15 C 10.5125 -0.4385 0.0 0
M  V30 16 C 11.5673 0.6399 0.0 0
M  V30 17 C 11.5673 -1.4933 0.0 0
M  V30 18 N 12.6221 -0.4148 0.0 0
M  V30 19 C 14.1154 -0.4029 0.0 0
M  V30 20 N 14.8621 0.9125 0.0 0
M  V30 21 C 14.8621 -1.6948 0.0 0
M  V30 22 N 16.3554 0.9244 0.0 0
M  V30 23 C 16.3554 -1.6829 0.0 0
M  V30 24 C 17.102 -0.3674 0.0 0
M  V30 25 C 18.5954 -0.3555 0.0 0
M  V30 END ATOM
M  V30 BEGIN BOND
M  V30 1 1 1 2
M  V30 2 1 1 3
M  V30 3 2 2 4
M  V30 4 2 3 5
M  V30 5 1 3 6
M  V30 6 1 4 7
M  V30 7 2 7 8
M  V30 8 1 7 9
M  V30 9 1 8 10
M  V30 10 2 9 11
M  V30 11 2 10 12
M  V30 12 1 12 13
M  V30 13 1 13 14
M  V30 14 1 14 15
M  V30 15 1 15 16
M  V30 16 1 15 17
M  V30 17 1 16 18
M  V30 18 1 18 19
M  V30 19 2 19 20
M  V30 20 1 19 21
M  V30 21 1 20 22
M  V30 22 2 21 23
M  V30 23 2 22 24
M  V30 24 1 24 25
M  V30 25 1 4 5
M  V30 26 1 11 12
M  V30 27 1 17 18
M  V30 28 1 23 24
M  V30 END BOND
M  V30 END CTAB
M  END
>  <Molecule Name>
CHEMBL1835918

>  <smiles_curated>
Cc1ccc(N2CC(COc3ccc(-c4noc(C)n4)cc3)C2)nn1

>  <pchembl_value>
4.5

>  <target_organism>
Homo sapiens

>  <standard_type>
EC50

>  <target_pref_name>
Pregnane X receptor

>  <assay_description>
Activation of human PXR expressed in african green monkey CV1 cells transfected with pSG5-hPXRDATG and (ER6)3-tk-CAT reporter

>  <activity>
0

$$$$
CHEMBL457271
Actelion Java MolfileCreator 2.0

  0  0  0  0  0  0              0 V3000
M  V30 BEGIN CTAB
M  V30 COUNTS 29 32 0 0 0
M  V30 BEGIN ATOM
M  V30 1 Cl 0.0 0.0 0.0 0
M  V30 2 C -0.7556 -1.2869 0.0 0
M  V30 3 C -2.2669 -1.2751 0.0 0
M  V30 4 C -0.0236 -2.5739 0.0 0
M  V30 5 C -3.0225 -2.562 0.0 0
M  V30 6 C -3.0225 0.0354 0.0 0
M  V30 7 C -0.7792 -3.8608 0.0 0
M  V30 8 C -2.2905 -3.849 0.0 0
M  V30 9 S -4.5338 0.0472 0.0 0
M  V30 10 O -4.5456 -1.4404 0.0 0
M  V30 11 O -4.5456 1.5585 0.0 0
M  V30 12 N -6.0451 0.059 0.0 0
M  V30 13 C -6.8007 -1.2279 0.0 0
M  V30 14 C -6.0687 -2.5148 0.0 0
M  V30 15 C -8.312 -1.2161 0.0 0
M  V30 16 C -6.8243 -3.8018 0.0 0
M  V30 17 C -9.0676 -2.503 0.0 0
M  V30 18 N -6.3757 -5.2186 0.0 0
M  V30 19 C -8.3356 -3.79 0.0 0
M  V30 20 C -7.6036 -6.0923 0.0 0
M  V30 21 N -8.8079 -5.2068 0.0 0
M  V30 22 C -10.2483 -5.6554 0.0 0 CFG=2
M  V30 23 C -11.37 -4.6401 0.0 0
M  V30 24 C -10.5671 -7.1077 0.0 0
M  V30 25 C -11.0748 -3.1642 0.0 0
M  V30 26 C -12.8104 -5.0887 0.0 0
M  V30 27 C -12.1965 -2.1488 0.0 0
M  V30 28 C -13.9321 -4.0733 0.0 0
M  V30 29 C -13.6369 -2.5975 0.0 0
M  V30 END ATOM
M  V30 BEGIN BOND
M  V30 1 1 1 2
M  V30 2 2 2 3
M  V30 3 1 2 4
M  V30 4 1 3 5
M  V30 5 1 3 6
M  V30 6 2 4 7
M  V30 7 2 5 8
M  V30 8 1 6 9
M  V30 9 2 9 10
M  V30 10 2 9 11
M  V30 11 1 9 12
M  V30 12 1 12 13
M  V30 13 2 13 14
M  V30 14 1 13 15
M  V30 15 1 14 16
M  V30 16 2 15 17
M  V30 17 1 16 18
M  V30 18 2 16 19
M  V30 19 2 18 20
M  V30 20 1 19 21
M  V30 21 1 22 21 CFG=1
M  V30 22 1 22 23
M  V30 23 1 22 24
M  V30 24 2 23 25
M  V30 25 1 23 26
M  V30 26 1 25 27
M  V30 27 2 26 28
M  V30 28 2 27 29
M  V30 29 1 7 8
M  V30 30 1 17 19
M  V30 31 1 20 21
M  V30 32 1 28 29
M  V30 END BOND
M  V30 BEGIN COLLECTION
M  V30 MDLV30/STERAC1 ATOMS=(1 22)
M  V30 END COLLECTION
M  V30 END CTAB
M  END
>  <Molecule Name>
CHEMBL457271

>  <smiles_curated>
CC(c1ccccc1)n1cnc2cc(NS(=O)(=O)Cc3ccccc3Cl)ccc21

>  <pchembl_value>
6.7

>  <target_organism>
Homo sapiens

>  <standard_type>
EC50

>  <target_pref_name>
Pregnane X receptor

>  <assay_description>
Agonist activity at human pregnane X receptor expressed in HGPXR reporter cells,Protection of human pregnane X receptor against proteolytic digestion in presence of trypsin

>  <activity>
1

$$$$
CHEMBL2164575
Actelion Java MolfileCreator 2.0

  0  0  0  0  0  0              0 V3000
M  V30 BEGIN CTAB
M  V30 COUNTS 34 37 0 0 0
M  V30 BEGIN ATOM
M  V30 1 S 0.0 0.0 0.0 0
M  V30 2 O 0.7685 -1.2652 0.0 0
M  V30 3 O -0.9459 1.1824 0.0 0
M  V30 4 N 1.1587 0.9459 0.0 0
M  V30 5 C -1.1824 -0.9223 0.0 0
M  V30 6 C 2.4949 0.3074 0.0 0
M  V30 7 C 0.8158 2.424 0.0 0
M  V30 8 C -2.5895 -0.3665 0.0 0
M  V30 9 C -0.9696 -2.4003 0.0 0
M  V30 10 C 3.8311 0.9696 0.0 0
M  V30 11 C 2.3767 -1.1824 0.0 0
M  V30 12 C 1.7381 3.6064 0.0 0
M  V30 13 C -3.7719 -1.2888 0.0 0
M  V30 14 C -2.152 -3.3226 0.0 0
M  V30 15 N 4.1503 2.4476 0.0 0
M  V30 16 C 5.0608 0.13 0.0 0
M  V30 17 C 3.6064 -2.0219 0.0 0
M  V30 18 C 1.0996 -1.9865 0.0 0
M  V30 19 C 3.228 3.6182 0.0 0
M  V30 20 C 0.9814 4.9189 0.0 0
M  V30 21 C -3.5591 -2.7669 0.0 0
M  V30 22 C 4.9426 -1.3598 0.0 0
M  V30 23 C 3.4882 -3.5118 0.0 0
M  V30 24 N 3.973 4.9307 0.0 0
M  V30 25 C 1.7263 6.2314 0.0 0
M  V30 26 C -4.7415 -3.6892 0.0 0
M  V30 27 C 3.2162 6.2432 0.0 0
M  V30 28 C -5.6875 -2.5067 0.0 0
M  V30 29 C -3.8192 -4.848 0.0 0
M  V30 30 C -5.924 -4.6115 0.0 0
M  V30 31 C 3.9611 7.5558 0.0 0
M  V30 32 F 4.7061 8.8683 0.0 0
M  V30 33 F 5.25 6.8108 0.0 0
M  V30 34 F 2.6486 8.3125 0.0 0
M  V30 END ATOM
M  V30 BEGIN BOND
M  V30 1 2 1 2
M  V30 2 2 1 3
M  V30 3 1 1 4
M  V30 4 1 1 5
M  V30 5 1 4 6
M  V30 6 1 4 7
M  V30 7 2 5 8
M  V30 8 1 5 9
M  V30 9 2 6 10
M  V30 10 1 6 11
M  V30 11 1 7 12
M  V30 12 1 8 13
M  V30 13 2 9 14
M  V30 14 1 10 15
M  V30 15 1 10 16
M  V30 16 2 11 17
M  V30 17 1 11 18
M  V30 18 2 12 19
M  V30 19 1 12 20
M  V30 20 2 13 21
M  V30 21 2 16 22
M  V30 22 1 17 23
M  V30 23 1 19 24
M  V30 24 2 20 25
M  V30 25 1 21 26
M  V30 26 2 24 27
M  V30 27 1 26 28
M  V30 28 1 26 29
M  V30 29 1 26 30
M  V30 30 1 27 31
M  V30 31 1 31 32
M  V30 32 1 31 33
M  V30 33 1 31 34
M  V30 34 1 14 21
M  V30 35 1 15 19
M  V30 36 1 17 22
M  V30 37 1 25 27
M  V30 END BOND
M  V30 END CTAB
M  END
>  <Molecule Name>
CHEMBL2164575

>  <smiles_curated>
Cc1ccc2Nc3nc(C(F)(F)F)ccc3CN(S(=O)(=O)c3ccc(C(C)(C)C)cc3)c2c1C

>  <pchembl_value>
6.17

>  <target_organism>
Homo sapiens

>  <standard_type>
EC50

>  <target_pref_name>
Pregnane X receptor

>  <assay_description>
Activation of human PXR

>  <activity>
1

$$$$
CHEMBL517181
Actelion Java MolfileCreator 2.0

  0  0  0  0  0  0              0 V3000
M  V30 BEGIN CTAB
M  V30 COUNTS 29 32 0 0 0
M  V30 BEGIN ATOM
M  V30 1 S 0.0 0.0 0.0 0
M  V30 2 O -1.3063 0.7532 0.0 0
M  V30 3 O 1.2828 -0.7414 0.0 0
M  V30 4 N 0.7414 1.3063 0.0 0
M  V30 5 C -0.7532 -1.2828 0.0 0
M  V30 6 C -0.0117 2.6127 0.0 0
M  V30 7 C -2.2596 -1.271 0.0 0
M  V30 8 C -0.0117 -2.5656 0.0 0
M  V30 9 C -1.5182 2.6245 0.0 0
M  V30 10 C 0.7296 3.9191 0.0 0
M  V30 11 C -3.0128 -2.5539 0.0 0
M  V30 12 C -0.7649 -3.8485 0.0 0
M  V30 13 C -2.2714 3.9308 0.0 0
M  V30 14 C -0.0235 5.2254 0.0 0
M  V30 15 C -2.2714 -3.8367 0.0 0
M  V30 16 N -3.7425 4.2486 0.0 0
M  V30 17 C -1.5299 5.2372 0.0 0
M  V30 18 C -3.0246 -5.1195 0.0 0
M  V30 19 C -3.9073 5.7433 0.0 0
M  V30 20 N -2.5421 6.3553 0.0 0
M  V30 21 C -4.5311 -5.1078 0.0 0
M  V30 22 C -2.2479 7.8264 0.0 0
M  V30 23 C -5.2843 -6.3906 0.0 0
M  V30 24 C -3.3659 8.8386 0.0 0
M  V30 25 C -3.0717 10.3097 0.0 0
M  V30 26 C -4.8018 8.3913 0.0 0
M  V30 27 C -4.1898 11.3219 0.0 0
M  V30 28 C -5.9198 9.4035 0.0 0
M  V30 29 C -5.6256 10.8746 0.0 0
M  V30 END ATOM
M  V30 BEGIN BOND
M  V30 1 2 1 2
M  V30 2 2 1 3
M  V30 3 1 1 4
M  V30 4 1 1 5
M  V30 5 1 4 6
M  V30 6 2 5 7
M  V30 7 1 5 8
M  V30 8 2 6 9
M  V30 9 1 6 10
M  V30 10 1 7 11
M  V30 11 2 8 12
M  V30 12 1 9 13
M  V30 13 2 10 14
M  V30 14 2 11 15
M  V30 15 1 13 16
M  V30 16 2 13 17
M  V30 17 1 15 18
M  V30 18 2 16 19
M  V30 19 1 17 20
M  V30 20 1 18 21
M  V30 21 1 20 22
M  V30 22 1 21 23
M  V30 23 1 22 24
M  V30 24 2 24 25
M  V30 25 1 24 26
M  V30 26 1 25 27
M  V30 27 2 26 28
M  V30 28 2 27 29
M  V30 29 1 12 15
M  V30 30 1 14 17
M  V30 31 1 19 20
M  V30 32 1 28 29
M  V30 END BOND
M  V30 END CTAB
M  END
>  <Molecule Name>
CHEMBL517181

>  <smiles_curated>
CCCc1ccc(S(=O)(=O)Nc2ccc3c(c2)ncn3Cc2ccccc2)cc1

>  <pchembl_value>
7.28

>  <target_organism>
Homo sapiens

>  <standard_type>
EC50

>  <target_pref_name>
Pregnane X receptor

>  <assay_description>
Agonist activity at human pregnane X receptor expressed in HGPXR reporter cells

>  <activity>
1

$$$$
CHEMBL516149
Actelion Java MolfileCreator 2.0

  0  0  0  0  0  0              0 V3000
M  V30 BEGIN CTAB
M  V30 COUNTS 28 31 0 0 0
M  V30 BEGIN ATOM
M  V30 1 Cl 0.0 0.0 0.0 0
M  V30 2 C -0.7515 1.3034 0.0 0
M  V30 3 C -0.0117 2.6068 0.0 0
M  V30 4 C -2.2545 1.3151 0.0 0
M  V30 5 C -0.7632 3.9102 0.0 0
M  V30 6 C 1.4678 2.6185 0.0 0
M  V30 7 C -3.006 2.6185 0.0 0
M  V30 8 C -2.2663 3.922 0.0 0
M  V30 9 S 2.2076 3.922 0.0 0
M  V30 10 O 0.9041 4.6735 0.0 0
M  V30 11 O 3.4875 3.1822 0.0 0
M  V30 12 N 2.9473 5.2254 0.0 0
M  V30 13 C 2.1958 6.5288 0.0 0
M  V30 14 C 0.6928 6.5406 0.0 0
M  V30 15 C 2.9356 7.8322 0.0 0
M  V30 16 C -0.0587 7.844 0.0 0
M  V30 17 C 2.1841 9.1357 0.0 0
M  V30 18 N -1.5265 8.161 0.0 0
M  V30 19 C 0.681 9.1474 0.0 0
M  V30 20 C -1.6909 9.6523 0.0 0
M  V30 21 N -0.3287 10.263 0.0 0
M  V30 22 C -0.0352 11.7308 0.0 0
M  V30 23 C -1.1507 12.7406 0.0 0
M  V30 24 C -0.8572 14.2085 0.0 0
M  V30 25 C -2.5833 12.2944 0.0 0
M  V30 26 C -1.9727 15.2183 0.0 0
M  V30 27 C -3.6989 13.3043 0.0 0
M  V30 28 C -3.4053 14.7721 0.0 0
M  V30 END ATOM
M  V30 BEGIN BOND
M  V30 1 1 1 2
M  V30 2 2 2 3
M  V30 3 1 2 4
M  V30 4 1 3 5
M  V30 5 1 3 6
M  V30 6 2 4 7
M  V30 7 2 5 8
M  V30 8 1 6 9
M  V30 9 2 9 10
M  V30 10 2 9 11
M  V30 11 1 9 12
M  V30 12 1 12 13
M  V30 13 2 13 14
M  V30 14 1 13 15
M  V30 15 1 14 16
M  V30 16 2 15 17
M  V30 17 1 16 18
M  V30 18 2 16 19
M  V30 19 2 18 20
M  V30 20 1 19 21
M  V30 21 1 21 22
M  V30 22 1 22 23
M  V30 23 2 23 24
M  V30 24 1 23 25
M  V30 25 1 24 26
M  V30 26 2 25 27
M  V30 27 2 26 28
M  V30 28 1 7 8
M  V30 29 1 17 19
M  V30 30 1 20 21
M  V30 31 1 27 28
M  V30 END BOND
M  V30 END CTAB
M  END
>  <Molecule Name>
CHEMBL516149

>  <smiles_curated>
O=S(=O)(Cc1ccccc1Cl)Nc1ccc2c(c1)ncn2Cc1ccccc1

>  <pchembl_value>
6.75

>  <target_organism>
Homo sapiens

>  <standard_type>
EC50

>  <target_pref_name>
Pregnane X receptor

>  <assay_description>
Agonist activity at human pregnane X receptor expressed in HGPXR reporter cells

>  <activity>
1

$$$$
CHEMBL1318553
Actelion Java MolfileCreator 2.0

  0  0  0  0  0  0              0 V3000
M  V30 BEGIN CTAB
M  V30 COUNTS 22 26 0 0 0
M  V30 BEGIN ATOM
M  V30 1 O 0.0 0.0 0.0 0
M  V30 2 C -1.3362 -0.6681 0.0 0
M  V30 3 N -2.5905 0.4102 0.0 0
M  V30 4 C -1.4183 -2.145 0.0 0
M  V30 5 C -3.0593 1.8403 0.0 0
M  V30 6 C -3.8095 -0.4571 0.0 0
M  V30 7 C -2.7546 -2.8132 0.0 0 CFG=2
M  V30 8 C -4.5597 1.852 0.0 0
M  V30 9 C -2.3209 3.1414 0.0 0
M  V30 10 C -5.0286 0.4337 0.0 0
M  V30 11 C -3.9737 -1.9223 0.0 0 CFG=1
M  V30 12 C -2.9187 -4.2784 0.0 0
M  V30 13 C -1.4066 -2.1919 0.0 0
M  V30 14 C -5.3099 3.1531 0.0 0
M  V30 15 C -3.0711 4.4425 0.0 0
M  V30 16 C -6.4001 -0.1641 0.0 0
M  V30 17 N -5.3451 -2.5201 0.0 0
M  V30 18 C -4.2901 -4.8762 0.0 0
M  V30 19 C -0.2109 -3.0593 0.0 0
M  V30 20 C -4.5715 4.4542 0.0 0
M  V30 21 C -6.5642 -1.6293 0.0 0
M  V30 22 C -5.5092 -3.9854 0.0 0
M  V30 END ATOM
M  V30 BEGIN BOND
M  V30 1 2 1 2
M  V30 2 1 2 3
M  V30 3 1 2 4
M  V30 4 1 3 5
M  V30 5 1 3 6
M  V30 6 1 7 4 CFG=1
M  V30 7 2 5 8
M  V30 8 1 5 9
M  V30 9 2 6 10
M  V30 10 1 6 11
M  V30 11 1 7 12
M  V30 12 1 7 13
M  V30 13 1 8 14
M  V30 14 2 9 15
M  V30 15 1 10 16
M  V30 16 1 11 17 CFG=1
M  V30 17 1 12 18
M  V30 18 1 13 19
M  V30 19 2 14 20
M  V30 20 1 16 21
M  V30 21 1 17 22
M  V30 22 1 7 11
M  V30 23 1 8 10
M  V30 24 1 15 20
M  V30 25 1 17 21
M  V30 26 1 18 22
M  V30 END BOND
M  V30 BEGIN COLLECTION
M  V30 MDLV30/STEABS ATOMS=(2 7 11)
M  V30 END COLLECTION
M  V30 END CTAB
M  END
>  <Molecule Name>
CHEMBL1318553

>  <smiles_curated>
CC[C@]12CCCN3CCc4c([C@H]31)n(C(=O)C2)c1ccccc41

>  <pchembl_value>
4.88

>  <target_organism>
Homo sapiens

>  <standard_type>
EC50

>  <target_pref_name>
Pregnane X receptor

>  <assay_description>
Activation of human PXR expressed in human HepG2 (DPX-2) cells after 24 hrs by luciferase reporter gene based luminescent analysis,Competitive binding affinity to human PXR LBD (111 to 434) by TR-FRET assay

>  <activity>
0

$$$$
CHEMBL3665949
Actelion Java MolfileCreator 2.0

  0  0  0  0  0  0              0 V3000
M  V30 BEGIN CTAB
M  V30 COUNTS 27 30 0 0 0
M  V30 BEGIN ATOM
M  V30 1 Cl 0.0 0.0 0.0 0
M  V30 2 C -0.7517 1.3038 0.0 0
M  V30 3 N -2.2552 1.3155 0.0 0
M  V30 4 C -0.0117 2.6076 0.0 0
M  V30 5 C -3.007 2.6194 0.0 0
M  V30 6 C -0.7635 3.9114 0.0 0
M  V30 7 C 1.4682 2.6194 0.0 0
M  V30 8 O -4.5105 2.6311 0.0 0
M  V30 9 N -2.267 3.9232 0.0 0
M  V30 10 N -0.0234 5.2153 0.0 0
M  V30 11 C -5.2623 3.9349 0.0 0
M  V30 12 C -0.7752 6.5191 0.0 0
M  V30 13 C -6.7658 3.9467 0.0 0 CFG=2
M  V30 14 C -0.0352 7.8229 0.0 0
M  V30 15 C -8.0696 4.6984 0.0 0 CFG=2
M  V30 16 C -8.0696 3.2067 0.0 0
M  V30 17 C 1.433 7.9874 0.0 0
M  V30 18 C -0.6577 9.1972 0.0 0
M  V30 19 C -8.8214 6.0023 0.0 0
M  V30 20 N 1.7266 9.4557 0.0 0
M  V30 21 N 0.4346 10.2074 0.0 0
M  V30 22 N -10.3249 6.014 0.0 0
M  V30 23 C -8.0814 7.3061 0.0 0
M  V30 24 C 0.2701 11.6992 0.0 0
M  V30 25 C -11.0766 7.3179 0.0 0
M  V30 26 C -8.8331 8.6099 0.0 0
M  V30 27 C -10.3366 8.6217 0.0 0
M  V30 END ATOM
M  V30 BEGIN BOND
M  V30 1 1 1 2
M  V30 2 2 2 3
M  V30 3 1 2 4
M  V30 4 1 3 5
M  V30 5 2 4 6
M  V30 6 1 4 7
M  V30 7 1 5 8
M  V30 8 2 5 9
M  V30 9 1 6 10
M  V30 10 1 8 11
M  V30 11 1 10 12
M  V30 12 1 13 11 CFG=1
M  V30 13 1 12 14
M  V30 14 1 13 15
M  V30 15 1 13 16
M  V30 16 1 14 17
M  V30 17 2 14 18
M  V30 18 1 15 19 CFG=3
M  V30 19 2 17 20
M  V30 20 1 18 21
M  V30 21 2 19 22
M  V30 22 1 19 23
M  V30 23 1 21 24
M  V30 24 1 22 25
M  V30 25 2 23 26
M  V30 26 2 25 27
M  V30 27 1 6 9
M  V30 28 1 15 16
M  V30 29 1 20 21
M  V30 30 1 26 27
M  V30 END BOND
M  V30 BEGIN COLLECTION
M  V30 MDLV30/STEABS ATOMS=(2 13 15)
M  V30 END COLLECTION
M  V30 END CTAB
M  END
>  <Molecule Name>
CHEMBL3665949

>  <smiles_curated>
Cc1c(Cl)nc(OC[C@H]2C[C@@H]2c2ccccn2)nc1NCc1cn(C)nc1

>  <pchembl_value>
5.25

>  <target_organism>
Homo sapiens

>  <standard_type>
EC50

>  <target_pref_name>
Pregnane X receptor

>  <assay_description>
Activation of PXR (unknown origin)

>  <activity>
0

$$$$
CHEMBL4451601
Actelion Java MolfileCreator 2.0

  0  0  0  0  0  0              0 V3000
M  V30 BEGIN CTAB
M  V30 COUNTS 29 33 0 0 0
M  V30 BEGIN ATOM
M  V30 1 O 0.0 0.0 0.0 0
M  V30 2 C 1.0963 -0.9902 0.0 0
M  V30 3 O 0.778 -2.4402 0.0 0
M  V30 4 N 2.5109 -0.5186 0.0 0
M  V30 5 C -0.6601 -2.8882 0.0 0
M  V30 6 C 2.9589 0.9195 0.0 0 CFG=1
M  V30 7 C 3.7134 -1.391 0.0 0
M  V30 8 C -0.2121 -4.3028 0.0 0
M  V30 9 C -1.1317 -1.4499 0.0 0
M  V30 10 C -2.0983 -3.3361 0.0 0
M  V30 11 C 2.2044 2.228 0.0 0
M  V30 12 C 4.4442 0.9312 0.0 0 CFG=2
M  V30 13 C 4.9158 -0.4951 0.0 0
M  V30 14 C 2.9471 3.5365 0.0 0
M  V30 15 C 0.6955 2.2398 0.0 0
M  V30 16 C 5.1869 2.2398 0.0 0 CFG=1
M  V30 17 N 4.4325 3.5483 0.0 0
M  V30 18 C 2.1926 4.8451 0.0 0
M  V30 19 C -0.0589 3.5483 0.0 0
M  V30 20 C 6.6723 2.2516 0.0 0
M  V30 21 C 0.6837 4.8568 0.0 0
M  V30 22 C 2.9353 6.1536 0.0 0
M  V30 23 O 7.5446 1.0491 0.0 0
M  V30 24 C 7.5446 3.4776 0.0 0
M  V30 25 C -0.0707 6.1654 0.0 0
M  V30 26 C 2.1808 7.4621 0.0 0
M  V30 27 C 8.9593 1.5207 0.0 0
M  V30 28 C 8.9593 3.0296 0.0 0
M  V30 29 C 0.6719 7.4739 0.0 0
M  V30 END ATOM
M  V30 BEGIN BOND
M  V30 1 2 1 2
M  V30 2 1 2 3
M  V30 3 1 2 4
M  V30 4 1 3 5
M  V30 5 1 6 4 CFG=1
M  V30 6 1 4 7
M  V30 7 1 5 8
M  V30 8 1 5 9
M  V30 9 1 5 10
M  V30 10 1 6 11
M  V30 11 1 6 12
M  V30 12 1 7 13
M  V30 13 2 11 14
M  V30 14 1 11 15
M  V30 15 1 12 16
M  V30 16 1 14 17
M  V30 17 1 14 18
M  V30 18 2 15 19
M  V30 19 1 16 20 CFG=1
M  V30 20 2 18 21
M  V30 21 1 18 22
M  V30 22 1 20 23
M  V30 23 2 20 24
M  V30 24 1 21 25
M  V30 25 1 22 26
M  V30 26 1 23 27
M  V30 27 1 24 28
M  V30 28 1 25 29
M  V30 29 1 12 13 CFG=1
M  V30 30 1 16 17
M  V30 31 1 19 21
M  V30 32 1 26 29
M  V30 33 2 27 28
M  V30 END BOND
M  V30 BEGIN COLLECTION
M  V30 MDLV30/STEABS ATOMS=(3 6 12 16)
M  V30 END COLLECTION
M  V30 END CTAB
M  END
>  <Molecule Name>
CHEMBL4451601

>  <smiles_curated>
CC(C)(C)OC(=O)N1CC[C@@H]2[C@H](c3ccco3)Nc3c(ccc4c3CCCC4)[C@@H]21

>  <pchembl_value>
5.82

>  <target_organism>
Homo sapiens

>  <standard_type>
EC50

>  <target_pref_name>
Pregnane X receptor

>  <assay_description>
Agonist activity at PXR (unknown origin) by AlphaScreen assay

>  <activity>
0

$$$$
CHEMBL242527
Actelion Java MolfileCreator 2.0

  0  0  0  0  0  0              0 V3000
M  V30 BEGIN CTAB
M  V30 COUNTS 28 29 0 0 0
M  V30 BEGIN ATOM
M  V30 1 S 0.0 0.0 0.0 0
M  V30 2 O -1.3132 0.7571 0.0 0
M  V30 3 O 1.2895 -0.7453 0.0 0
M  V30 4 N 0.7453 1.3132 0.0 0
M  V30 5 C -0.7571 -1.2895 0.0 0
M  V30 6 C 2.236 1.325 0.0 0
M  V30 7 C -0.0118 2.6265 0.0 0
M  V30 8 C -0.0118 -2.5791 0.0 0
M  V30 9 C -2.2715 -1.2777 0.0 0
M  V30 10 C 2.9814 0.0354 0.0 0
M  V30 11 C 2.9814 2.6383 0.0 0
M  V30 12 C 0.7335 3.9397 0.0 0
M  V30 13 C -0.769 -3.8687 0.0 0
M  V30 14 C -3.0287 -2.5673 0.0 0
M  V30 15 C 4.4721 0.0473 0.0 0
M  V30 16 C 4.4721 2.6501 0.0 0
M  V30 17 F 1.4788 5.253 0.0 0
M  V30 18 F -0.5797 4.6969 0.0 0
M  V30 19 F 2.0231 3.1943 0.0 0
M  V30 20 C -2.2834 -3.8569 0.0 0
M  V30 21 C 5.2175 1.3605 0.0 0
M  V30 22 C 6.7082 1.3724 0.0 0 CFG=1
M  V30 23 O 6.6964 2.8867 0.0 0
M  V30 24 C 6.6964 -0.1183 0.0 0
M  V30 25 C 8.1989 1.3842 0.0 0
M  V30 26 F 6.6845 -1.609 0.0 0
M  V30 27 F 5.2293 -0.4732 0.0 0
M  V30 28 F 8.1871 -0.1064 0.0 0
M  V30 END ATOM
M  V30 BEGIN BOND
M  V30 1 2 1 2
M  V30 2 2 1 3
M  V30 3 1 1 4
M  V30 4 1 1 5
M  V30 5 1 4 6
M  V30 6 1 4 7
M  V30 7 2 5 8
M  V30 8 1 5 9
M  V30 9 2 6 10
M  V30 10 1 6 11
M  V30 11 1 7 12
M  V30 12 1 8 13
M  V30 13 2 9 14
M  V30 14 1 10 15
M  V30 15 2 11 16
M  V30 16 1 12 17
M  V30 17 1 12 18
M  V30 18 1 12 19
M  V30 19 2 13 20
M  V30 20 2 15 21
M  V30 21 1 21 22
M  V30 22 1 22 23 CFG=1
M  V30 23 1 22 24
M  V30 24 1 22 25
M  V30 25 1 24 26
M  V30 26 1 24 27
M  V30 27 1 24 28
M  V30 28 1 14 20
M  V30 29 1 16 21
M  V30 END BOND
M  V30 BEGIN COLLECTION
M  V30 MDLV30/STERAC1 ATOMS=(1 22)
M  V30 END COLLECTION
M  V30 END CTAB
M  END
>  <Molecule Name>
CHEMBL242527

>  <smiles_curated>
CC(O)(c1ccc(N(CC(F)(F)F)S(=O)(=O)c2ccccc2)cc1)C(F)(F)F

>  <pchembl_value>
6.3

>  <target_organism>
Homo sapiens

>  <standard_type>
EC50

>  <target_pref_name>
Pregnane X receptor

>  <assay_description>
Antagonist activity at human PXR by transient transfection assay

>  <activity>
1

$$$$
CHEMBL1402878
Actelion Java MolfileCreator 2.0

  0  0  0  0  0  0              0 V3000
M  V30 BEGIN CTAB
M  V30 COUNTS 26 28 0 0 0
M  V30 BEGIN ATOM
M  V30 1 Cl 0.0 0.0 0.0 0
M  V30 2 C 0.7447 1.3122 0.0 0
M  V30 3 C -0.0118 2.6244 0.0 0
M  V30 4 C 2.2343 1.324 0.0 0
M  V30 5 C 0.7329 3.9366 0.0 0
M  V30 6 C 2.979 2.6362 0.0 0
M  V30 7 C 2.2224 3.9484 0.0 0
M  V30 8 C 2.9672 5.2606 0.0 0
M  V30 9 O 2.2106 6.5728 0.0 0
M  V30 10 O 4.4567 5.2724 0.0 0
M  V30 11 C 5.2015 6.5846 0.0 0
M  V30 12 C 6.691 6.5965 0.0 0
M  V30 13 C 4.4449 7.8969 0.0 0
M  V30 14 N 7.4358 5.3079 0.0 0
M  V30 15 C 7.4358 7.9087 0.0 0
M  V30 16 C 5.1897 9.2091 0.0 0
M  V30 17 C 6.6792 4.0193 0.0 0
M  V30 18 C 6.6792 9.2209 0.0 0
M  V30 19 O 5.166 4.0312 0.0 0
M  V30 20 C 7.424 2.7308 0.0 0
M  V30 21 C 6.6674 1.4422 0.0 0
M  V30 22 C 8.9135 2.7426 0.0 0
M  V30 23 C 7.4122 0.1536 0.0 0
M  V30 24 C 9.6583 1.454 0.0 0
M  V30 25 C 8.9017 0.1655 0.0 0
M  V30 26 Cl 9.6465 -1.123 0.0 0
M  V30 END ATOM
M  V30 BEGIN BOND
M  V30 1 1 1 2
M  V30 2 2 2 3
M  V30 3 1 2 4
M  V30 4 1 3 5
M  V30 5 2 4 6
M  V30 6 2 5 7
M  V30 7 1 7 8
M  V30 8 2 8 9
M  V30 9 1 8 10
M  V30 10 1 10 11
M  V30 11 2 11 12
M  V30 12 1 11 13
M  V30 13 1 12 14
M  V30 14 1 12 15
M  V30 15 2 13 16
M  V30 16 1 14 17
M  V30 17 2 15 18
M  V30 18 2 17 19
M  V30 19 1 17 20
M  V30 20 2 20 21
M  V30 21 1 20 22
M  V30 22 1 21 23
M  V30 23 2 22 24
M  V30 24 2 23 25
M  V30 25 1 25 26
M  V30 26 1 6 7
M  V30 27 1 16 18
M  V30 28 1 24 25
M  V30 END BOND
M  V30 END CTAB
M  END
>  <Molecule Name>
CHEMBL1402878

>  <smiles_curated>
O=C(Nc1ccccc1OC(=O)c1ccc(Cl)cc1)c1ccc(Cl)cc1

>  <pchembl_value>
4.17

>  <target_organism>
Homo sapiens

>  <standard_type>
EC50

>  <target_pref_name>
Pregnane X receptor

>  <assay_description>
PUBCHEM_BIOASSAY: Luminescence-based counterscreen for activators of the Aryl Hydrocarbon Receptor (AHR): cell-based high throughput dose response screening assay for activators of the Pregnane X Receptor (PXR). (Class of assay: confirmatory) [Related pubchem assays: 2796 (Primary screen (AHR activators in singlicate)), 2845 (Confirmation screen (AHR activators in triplicate)), 434939 (Counterscreen (PXR activators in triplicate)), 2804 (Summary (AHR activators))]

>  <activity>
0

$$$$
CHEMBL1201121
Actelion Java MolfileCreator 2.0

  0  0  0  0  0  0              0 V3000
M  V30 BEGIN CTAB
M  V30 COUNTS 27 30 0 0 0
M  V30 BEGIN ATOM
M  V30 1 S 0.0 0.0 0.0 0
M  V30 2 C 0.8723 -1.2023 0.0 0
M  V30 3 C -1.4381 -0.4479 0.0 0 CFG=1
M  V30 4 C -0.0235 -2.4047 0.0 0 CFG=1
M  V30 5 C 1.9685 -0.1886 0.0 0
M  V30 6 C 1.9685 -2.1925 0.0 0
M  V30 7 N -1.4499 -1.9332 0.0 0
M  V30 8 C -2.9469 -0.4361 0.0 0 CFG=1
M  V30 9 C 0.4243 -3.8192 0.0 0
M  V30 10 C -2.9587 -1.9214 0.0 0
M  V30 11 N -4.0196 0.6365 0.0 0
M  V30 12 O 1.8742 -4.1139 0.0 0
M  V30 13 O -0.5893 -4.9155 0.0 0 CHG=-1
M  V30 14 O -4.0314 -2.9705 0.0 0
M  V30 15 C -5.5049 0.4125 0.0 0
M  V30 16 C -3.7957 2.1218 0.0 0
M  V30 17 O -6.2004 -0.9076 0.0 0
M  V30 18 C -6.2004 1.7564 0.0 0 CFG=2
M  V30 19 N -5.1395 2.8173 0.0 0
M  V30 20 C -3.2652 3.5363 0.0 0
M  V30 21 C -2.3575 1.7446 0.0 0
M  V30 22 C -7.6857 2.0039 0.0 0
M  V30 23 C -8.2397 3.4185 0.0 0
M  V30 24 C -8.6405 0.8487 0.0 0
M  V30 25 C -9.725 3.666 0.0 0
M  V30 26 C -10.1258 1.0962 0.0 0
M  V30 27 C -10.6798 2.5108 0.0 0
M  V30 END ATOM
M  V30 BEGIN BOND
M  V30 1 1 1 2
M  V30 2 1 3 1 CFG=1
M  V30 3 1 2 4
M  V30 4 1 2 5
M  V30 5 1 2 6
M  V30 6 1 3 7
M  V30 7 1 3 8
M  V30 8 1 4 9 CFG=3
M  V30 9 1 7 10
M  V30 10 1 8 11 CFG=1
M  V30 11 2 9 12
M  V30 12 1 9 13
M  V30 13 2 10 14
M  V30 14 1 11 15
M  V30 15 1 11 16
M  V30 16 2 15 17
M  V30 17 1 15 18
M  V30 18 1 16 19
M  V30 19 1 16 20
M  V30 20 1 16 21
M  V30 21 1 18 22 CFG=1
M  V30 22 2 22 23
M  V30 23 1 22 24
M  V30 24 1 23 25
M  V30 25 2 24 26
M  V30 26 2 25 27
M  V30 27 1 4 7
M  V30 28 1 8 10
M  V30 29 1 18 19
M  V30 30 1 26 27
M  V30 END BOND
M  V30 BEGIN COLLECTION
M  V30 MDLV30/STEABS ATOMS=(4 3 4 8 18)
M  V30 END COLLECTION
M  V30 END CTAB
M  END
>  <Molecule Name>
CHEMBL1201121

>  <smiles_curated>
CC1(C)S[C@@H]2[C@H](N3C(=O)[C@@H](c4ccccc4)NC3(C)C)C(=O)N2[C@H]1C(=O)[O-]

>  <pchembl_value>
5.2

>  <target_organism>
Homo sapiens

>  <standard_type>
EC50

>  <target_pref_name>
Pregnane X receptor

>  <assay_description>
Competitive binding affinity to human PXR LBD (111 to 434) by TR-FRET assay

>  <activity>
0

$$$$
CHEMBL4071864
Actelion Java MolfileCreator 2.0

  0  0  0  0  0  0              0 V3000
M  V30 BEGIN CTAB
M  V30 COUNTS 28 31 0 0 0
M  V30 BEGIN ATOM
M  V30 1 O 0.0 0.0 0.0 0
M  V30 2 C 1.1559 0.9435 0.0 0
M  V30 3 N 0.8138 2.4179 0.0 0
M  V30 4 C 2.4887 0.3066 0.0 0 CFG=1
M  V30 5 C 1.7338 3.5974 0.0 0
M  V30 6 C -0.6605 2.76 0.0 0
M  V30 7 N 2.4769 -1.1794 0.0 0
M  V30 8 C 3.8215 0.9671 0.0 0
M  V30 9 C 3.22 3.6092 0.0 0
M  V30 10 C 0.9789 4.9067 0.0 0
M  V30 11 C 1.1677 -1.9225 0.0 0
M  V30 12 O 4.14 2.4415 0.0 0
M  V30 13 C 3.9631 4.9184 0.0 0
M  V30 14 C 1.722 6.2159 0.0 0
M  V30 15 O -0.1415 -1.1677 0.0 0
M  V30 16 C 1.1559 -3.4087 0.0 0
M  V30 17 C 3.2082 6.2277 0.0 0
M  V30 18 N 2.3589 -4.2815 0.0 0
M  V30 19 N -0.0707 -4.2815 0.0 0
M  V30 20 N 1.8871 -5.6969 0.0 0
M  V30 21 C 0.3774 -5.6969 0.0 0
M  V30 22 C -0.5189 -6.9 0.0 0
M  V30 23 C -2.0169 -6.7349 0.0 0
M  V30 24 C -2.642 -5.3549 0.0 0
M  V30 25 C -2.9133 -7.938 0.0 0
M  V30 26 C -4.14 -5.1897 0.0 0
M  V30 27 C -4.4113 -7.7728 0.0 0
M  V30 28 C -5.0364 -6.3928 0.0 0
M  V30 END ATOM
M  V30 BEGIN BOND
M  V30 1 2 1 2
M  V30 2 1 2 3
M  V30 3 1 2 4
M  V30 4 1 3 5
M  V30 5 1 3 6
M  V30 6 1 4 7 CFG=3
M  V30 7 1 4 8
M  V30 8 2 5 9
M  V30 9 1 5 10
M  V30 10 1 7 11
M  V30 11 1 8 12
M  V30 12 1 9 13
M  V30 13 2 10 14
M  V30 14 2 11 15
M  V30 15 1 11 16
M  V30 16 2 13 17
M  V30 17 2 16 18
M  V30 18 1 16 19
M  V30 19 1 18 20
M  V30 20 2 19 21
M  V30 21 1 21 22
M  V30 22 1 22 23
M  V30 23 2 23 24
M  V30 24 1 23 25
M  V30 25 1 24 26
M  V30 26 2 25 27
M  V30 27 2 26 28
M  V30 28 1 9 12
M  V30 29 1 14 17
M  V30 30 1 20 21
M  V30 31 1 27 28
M  V30 END BOND
M  V30 BEGIN COLLECTION
M  V30 MDLV30/STEABS ATOMS=(1 4)
M  V30 END COLLECTION
M  V30 END CTAB
M  END
>  <Molecule Name>
CHEMBL4071864

>  <smiles_curated>
CN1C(=O)[C@@H](NC(=O)c2n[nH]c(Cc3ccccc3)n2)COc2ccccc21

>  <pchembl_value>
4.89

>  <target_organism>
Homo sapiens

>  <standard_type>
EC50

>  <target_pref_name>
Pregnane X receptor

>  <assay_description>
Activation of human PXR

>  <activity>
0

$$$$
CHEMBL2324351
Actelion Java MolfileCreator 2.0

  0  0  0  0  0  0              0 V3000
M  V30 BEGIN CTAB
M  V30 COUNTS 32 35 0 0 0
M  V30 BEGIN ATOM
M  V30 1 F 0.0 0.0 0.0 0
M  V30 2 C -1.5081 0.0117 0.0 0
M  V30 3 C -2.2621 1.3195 0.0 0
M  V30 4 C -2.2621 -1.2724 0.0 0
M  V30 5 N -3.7702 1.3313 0.0 0
M  V30 6 C -1.5198 2.6274 0.0 0
M  V30 7 C -3.7702 -1.2606 0.0 0
M  V30 8 C -4.5243 0.0471 0.0 0
M  V30 9 C -0.0353 2.6391 0.0 0
M  V30 10 C -2.2739 3.9352 0.0 0
M  V30 11 C 0.7069 3.947 0.0 0
M  V30 12 C -1.5316 5.243 0.0 0
M  V30 13 C 2.1914 3.9587 0.0 0
M  V30 14 C -0.0471 5.2548 0.0 0
M  V30 15 C -2.2857 6.5508 0.0 0
M  V30 16 N 2.9337 5.2666 0.0 0
M  V30 17 C 2.9337 2.6745 0.0 0
M  V30 18 O -3.7938 6.5626 0.0 0
M  V30 19 N -1.5434 7.8586 0.0 0
M  V30 20 C 4.4182 5.2783 0.0 0
M  V30 21 C 4.4182 2.6863 0.0 0
M  V30 22 C -2.2975 9.1664 0.0 0 CFG=1
M  V30 23 C 5.1605 3.9941 0.0 0
M  V30 24 C -3.8056 9.1782 0.0 0
M  V30 25 C -1.5552 10.4743 0.0 0
M  V30 26 C 6.6451 4.0059 0.0 0
M  V30 27 N -4.5596 7.894 0.0 0
M  V30 28 C -4.5596 10.486 0.0 0
M  V30 29 C -6.0677 7.9057 0.0 0
M  V30 30 C -6.0677 10.4978 0.0 0
M  V30 31 C -6.8218 9.2136 0.0 0
M  V30 32 F -8.3299 9.2253 0.0 0
M  V30 END ATOM
M  V30 BEGIN BOND
M  V30 1 1 1 2
M  V30 2 2 2 3
M  V30 3 1 2 4
M  V30 4 1 3 5
M  V30 5 1 3 6
M  V30 6 2 4 7
M  V30 7 2 5 8
M  V30 8 2 6 9
M  V30 9 1 6 10
M  V30 10 1 9 11
M  V30 11 2 10 12
M  V30 12 1 11 13
M  V30 13 2 11 14
M  V30 14 1 12 15
M  V30 15 2 13 16
M  V30 16 1 13 17
M  V30 17 2 15 18
M  V30 18 1 15 19
M  V30 19 1 16 20
M  V30 20 2 17 21
M  V30 21 1 22 19 CFG=1
M  V30 22 2 20 23
M  V30 23 1 22 24
M  V30 24 1 22 25
M  V30 25 1 23 26
M  V30 26 2 24 27
M  V30 27 1 24 28
M  V30 28 1 27 29
M  V30 29 2 28 30
M  V30 30 2 29 31
M  V30 31 1 31 32
M  V30 32 1 7 8
M  V30 33 1 12 14
M  V30 34 1 21 23
M  V30 35 1 30 31
M  V30 END BOND
M  V30 BEGIN COLLECTION
M  V30 MDLV30/STEABS ATOMS=(1 22)
M  V30 END COLLECTION
M  V30 END CTAB
M  END
>  <Molecule Name>
CHEMBL2324351

>  <smiles_curated>
Cc1ccc(-c2cc(C(=O)N[C@H](C)c3ccc(F)cn3)cc(-c3ncccc3F)c2)nc1

>  <pchembl_value>
5.22

>  <target_organism>
Homo sapiens

>  <standard_type>
EC50

>  <target_pref_name>
Pregnane X receptor

>  <assay_description>
Activation of PXR (unknown origin)

>  <activity>
0

$$$$
CHEMBL1200902
Actelion Java MolfileCreator 2.0

  0  0  0  0  0  0              0 V3000
M  V30 BEGIN CTAB
M  V30 COUNTS 30 33 0 0 0
M  V30 BEGIN ATOM
M  V30 1 S 0.0 0.0 0.0 0
M  V30 2 O -1.3102 -0.7436 0.0 0
M  V30 3 O 1.2866 0.7554 0.0 0
M  V30 4 N 0.7436 -1.2866 0.0 0
M  V30 5 C -0.7554 1.3102 0.0 0
M  V30 6 C 2.231 -1.2748 0.0 0
M  V30 7 C -0.0118 -2.5733 0.0 0
M  V30 8 C -0.0118 2.6205 0.0 0
M  V30 9 C -2.2664 1.322 0.0 0
M  V30 10 C -0.7672 3.9308 0.0 0
M  V30 11 C -3.0219 2.6323 0.0 0
M  V30 12 C -2.2782 3.9426 0.0 0
M  V30 13 C -0.0236 5.2411 0.0 0
M  V30 14 S -3.0337 5.2529 0.0 0
M  V30 15 C -0.779 6.5514 0.0 0
M  V30 16 C 1.4637 5.2529 0.0 0
M  V30 17 C -2.29 6.5632 0.0 0
M  V30 18 C -0.0354 7.8617 0.0 0
M  V30 19 C 2.2074 3.9662 0.0 0
M  V30 20 C -3.0455 7.8735 0.0 0
M  V30 21 C -0.7908 9.172 0.0 0
M  V30 22 C 3.6947 3.978 0.0 0
M  V30 23 C -2.3018 9.1838 0.0 0
M  V30 24 N 4.4384 2.6914 0.0 0
M  V30 25 C 3.6829 1.4047 0.0 0
M  V30 26 C 5.9258 2.7032 0.0 0
M  V30 27 C 4.4266 0.118 0.0 0
M  V30 28 C 6.6694 1.4165 0.0 0
M  V30 29 N 5.914 0.1298 0.0 0
M  V30 30 C 6.6576 -1.1568 0.0 0
M  V30 END ATOM
M  V30 BEGIN BOND
M  V30 1 2 1 2
M  V30 2 2 1 3
M  V30 3 1 1 4
M  V30 4 1 1 5
M  V30 5 1 4 6
M  V30 6 1 4 7
M  V30 7 2 5 8
M  V30 8 1 5 9
M  V30 9 1 8 10
M  V30 10 2 9 11
M  V30 11 2 10 12
M  V30 12 1 10 13
M  V30 13 1 12 14
M  V30 14 1 13 15
M  V30 15 2 13 16
M  V30 16 1 14 17
M  V30 17 1 15 18
M  V30 18 1 16 19
M  V30 19 1 17 20
M  V30 20 2 18 21
M  V30 21 1 19 22
M  V30 22 2 20 23
M  V30 23 1 22 24
M  V30 24 1 24 25
M  V30 25 1 24 26
M  V30 26 1 25 27
M  V30 27 1 26 28
M  V30 28 1 27 29
M  V30 29 1 29 30
M  V30 30 1 11 12
M  V30 31 2 15 17
M  V30 32 1 21 23
M  V30 33 1 28 29
M  V30 END BOND
M  V30 END CTAB
M  END
>  <Molecule Name>
CHEMBL1200902

>  <smiles_curated>
CN1CCN(CC/C=C2/c3ccccc3Sc3ccc(S(=O)(=O)N(C)C)cc32)CC1

>  <pchembl_value>
5.03

>  <target_organism>
Homo sapiens

>  <standard_type>
EC50

>  <target_pref_name>
Pregnane X receptor

>  <assay_description>
Activation of human PXR expressed in human HepG2 (DPX-2) cells after 24 hrs by luciferase reporter gene based luminescent analysis,Activation of human PXR expressed in human HepG2 (DPX-2) cells assessed as induction of CYP3A4 after 24 hrs by luminescent analysis

>  <activity>
0

$$$$
CHEMBL81
Actelion Java MolfileCreator 2.0

  0  0  0  0  0  0              0 V3000
M  V30 BEGIN CTAB
M  V30 COUNTS 34 38 0 0 0
M  V30 BEGIN ATOM
M  V30 1 S 0.0 0.0 0.0 0
M  V30 2 C -1.5113 0.0118 0.0 0
M  V30 3 C 0.4486 -1.4168 0.0 0
M  V30 4 C -2.4087 1.2397 0.0 0
M  V30 5 C -1.9836 -1.405 0.0 0
M  V30 6 C -0.7792 -2.2906 0.0 0
M  V30 7 C 1.8065 -2.019 0.0 0
M  V30 8 C -1.8065 2.6212 0.0 0
M  V30 9 C -3.9082 1.098 0.0 0
M  V30 10 C -3.4241 -1.8537 0.0 0
M  V30 11 C -0.6375 -3.7665 0.0 0
M  V30 12 C 1.9482 -3.4949 0.0 0
M  V30 13 C -2.7038 3.8492 0.0 0
M  V30 14 C -4.8056 2.326 0.0 0
M  V30 15 O -4.5458 -0.8383 0.0 0
M  V30 16 C -3.7429 -3.306 0.0 0
M  V30 17 C 0.7202 -4.3687 0.0 0
M  V30 18 O 3.306 -4.0971 0.0 0
M  V30 19 C -4.2034 3.7075 0.0 0
M  V30 20 C -5.1834 -3.7547 0.0 0
M  V30 21 C -2.6448 -4.2978 0.0 0
M  V30 22 O -5.1007 4.9354 0.0 0
M  V30 23 C -5.5022 -5.207 0.0 0
M  V30 24 C -2.9636 -5.7502 0.0 0
M  V30 25 C -4.4041 -6.1988 0.0 0
M  V30 26 O -4.7229 -7.6511 0.0 0
M  V30 27 C -6.1634 -8.0998 0.0 0
M  V30 28 C -6.4822 -9.5521 0.0 0
M  V30 29 N -7.9227 -10.0008 0.0 0
M  V30 30 C -9.0444 -8.9854 0.0 0
M  V30 31 C -8.2415 -11.4531 0.0 0
M  V30 32 C -10.4849 -9.4341 0.0 0
M  V30 33 C -9.682 -11.9018 0.0 0
M  V30 34 C -10.8037 -10.8864 0.0 0
M  V30 END ATOM
M  V30 BEGIN BOND
M  V30 1 1 1 2
M  V30 2 1 1 3
M  V30 3 1 2 4
M  V30 4 2 2 5
M  V30 5 2 3 6
M  V30 6 1 3 7
M  V30 7 2 4 8
M  V30 8 1 4 9
M  V30 9 1 5 10
M  V30 10 1 6 11
M  V30 11 2 7 12
M  V30 12 1 8 13
M  V30 13 2 9 14
M  V30 14 2 10 15
M  V30 15 1 10 16
M  V30 16 2 11 17
M  V30 17 1 12 18
M  V30 18 2 13 19
M  V30 19 2 16 20
M  V30 20 1 16 21
M  V30 21 1 19 22
M  V30 22 1 20 23
M  V30 23 2 21 24
M  V30 24 2 23 25
M  V30 25 1 25 26
M  V30 26 1 26 27
M  V30 27 1 27 28
M  V30 28 1 28 29
M  V30 29 1 29 30
M  V30 30 1 29 31
M  V30 31 1 30 32
M  V30 32 1 31 33
M  V30 33 1 32 34
M  V30 34 1 5 6
M  V30 35 1 12 17
M  V30 36 1 14 19
M  V30 37 1 24 25
M  V30 38 1 33 34
M  V30 END BOND
M  V30 END CTAB
M  END
>  <Molecule Name>
CHEMBL81

>  <smiles_curated>
O=C(c1ccc(OCCN2CCCCC2)cc1)c1c(-c2ccc(O)cc2)sc2cc(O)ccc12

>  <pchembl_value>
4.93

>  <target_organism>
Homo sapiens

>  <standard_type>
EC50

>  <target_pref_name>
Pregnane X receptor

>  <assay_description>
Agonist activity at PXR (unknown origin) expressed in human HepG2 cells assessed as induction of CYP3A4 transactivation after 16 hrs by luciferase reporter gene assay

>  <activity>
0

$$$$
CHEMBL4465050
Actelion Java MolfileCreator 2.0

  0  0  0  0  0  0              0 V3000
M  V30 BEGIN CTAB
M  V30 COUNTS 30 34 0 0 0
M  V30 BEGIN ATOM
M  V30 1 Cl 0.0 0.0 0.0 0
M  V30 2 C 1.4574 0.3199 0.0 0
M  V30 3 C 1.9077 1.7655 0.0 0
M  V30 4 C 2.4528 -0.782 0.0 0
M  V30 5 Cl 0.8887 2.8912 0.0 0
M  V30 6 C 3.3652 2.0855 0.0 0
M  V30 7 C 3.9103 -0.4621 0.0 0
M  V30 8 C 4.3606 0.9835 0.0 0
M  V30 9 C 4.9056 -1.5641 0.0 0
M  V30 10 O 6.3631 -1.2441 0.0 0
M  V30 11 N 7.3585 -2.3461 0.0 0
M  V30 12 C 8.816 -2.0262 0.0 0
M  V30 13 C 9.8113 -3.1282 0.0 0
M  V30 14 N 9.4914 -4.5857 0.0 0
M  V30 15 C 11.2925 -2.9623 0.0 0
M  V30 16 C 10.783 -5.3322 0.0 0
M  V30 17 C 8.3657 -5.5811 0.0 0
M  V30 18 N 11.8968 -4.325 0.0 0
M  V30 19 C 12.039 -1.647 0.0 0
M  V30 20 O 10.463 -6.7897 0.0 0
M  V30 21 C 8.97 -6.9437 0.0 0
M  V30 22 C 11.2807 -0.3317 0.0 0
M  V30 23 C 13.5321 -1.6352 0.0 0
M  V30 24 C 12.0272 0.9835 0.0 0
M  V30 25 C 14.2786 -0.3199 0.0 0
M  V30 26 C 13.5202 0.9953 0.0 0
M  V30 27 C 11.2688 2.2987 0.0 0
M  V30 28 C 14.2667 2.3106 0.0 0
M  V30 29 C 12.0153 3.614 0.0 0
M  V30 30 C 13.5084 3.6259 0.0 0
M  V30 END ATOM
M  V30 BEGIN BOND
M  V30 1 1 1 2
M  V30 2 2 2 3
M  V30 3 1 2 4
M  V30 4 1 3 5
M  V30 5 1 3 6
M  V30 6 2 4 7
M  V30 7 2 6 8
M  V30 8 1 7 9
M  V30 9 1 9 10
M  V30 10 1 10 11
M  V30 11 2 11 12
M  V30 12 1 12 13
M  V30 13 1 13 14
M  V30 14 2 13 15
M  V30 15 1 14 16
M  V30 16 1 14 17
M  V30 17 1 15 18
M  V30 18 1 15 19
M  V30 19 1 16 20
M  V30 20 2 17 21
M  V30 21 2 19 22
M  V30 22 1 19 23
M  V30 23 1 22 24
M  V30 24 2 23 25
M  V30 25 1 24 26
M  V30 26 2 24 27
M  V30 27 2 26 28
M  V30 28 1 27 29
M  V30 29 1 28 30
M  V30 30 1 7 8
M  V30 31 2 16 18
M  V30 32 1 20 21
M  V30 33 1 25 26
M  V30 34 2 29 30
M  V30 END BOND
M  V30 END CTAB
M  END
>  <Molecule Name>
CHEMBL4465050

>  <smiles_curated>
Clc1ccc(CO/N=C/c2c(-c3ccc4ccccc4c3)nc3occn23)cc1Cl

>  <pchembl_value>
5.23

>  <target_organism>
Homo sapiens

>  <standard_type>
EC50

>  <target_pref_name>
Pregnane X receptor

>  <assay_description>
Agonist activity at human PXR transfected in human HepG2 cells cotransfected with CYP3A4 incubated for 23 hrs by luciferase reporter gene assay

>  <activity>
0

$$$$
CHEMBL465
Actelion Java MolfileCreator 2.0

  0  0  0  0  0  0              0 V3000
M  V30 BEGIN CTAB
M  V30 COUNTS 23 25 0 0 0
M  V30 BEGIN ATOM
M  V30 1 O 0.0 0.0 0.0 0
M  V30 2 C -1.5056 0.0117 0.0 0
M  V30 3 C 0.741 1.3056 0.0 0
M  V30 4 C -2.2584 1.3174 0.0 0
M  V30 5 C -2.2584 -1.2704 0.0 0
M  V30 6 C -0.0117 2.6113 0.0 0 CFG=1
M  V30 7 C 1.8703 2.282 0.0 0
M  V30 8 C 1.8703 0.3528 0.0 0
M  V30 9 C -3.7641 1.3292 0.0 0
M  V30 10 C -1.5174 2.6231 0.0 0 CFG=1
M  V30 11 C -3.7641 -1.2586 0.0 0
M  V30 12 C 0.7293 3.917 0.0 0
M  V30 13 O -4.5169 2.6349 0.0 0
M  V30 14 C -4.5169 0.047 0.0 0
M  V30 15 C -2.2702 3.9288 0.0 0
M  V30 16 C -4.5169 -2.5408 0.0 0
M  V30 17 C -0.0235 5.2227 0.0 0
M  V30 18 C -1.5291 5.2345 0.0 0
M  V30 19 C -6.0226 -2.529 0.0 0
M  V30 20 C -2.282 6.5402 0.0 0
M  V30 21 C -6.7754 -3.8112 0.0 0
M  V30 22 C -8.2811 -3.7994 0.0 0
M  V30 23 C -9.0339 -5.0816 0.0 0
M  V30 END ATOM
M  V30 BEGIN BOND
M  V30 1 1 1 2
M  V30 2 1 1 3
M  V30 3 2 2 4
M  V30 4 1 2 5
M  V30 5 1 3 6
M  V30 6 1 3 7
M  V30 7 1 3 8
M  V30 8 1 4 9
M  V30 9 1 4 10
M  V30 10 2 5 11
M  V30 11 1 6 12 CFG=1
M  V30 12 1 9 13
M  V30 13 2 9 14
M  V30 14 1 10 15 CFG=3
M  V30 15 1 11 16
M  V30 16 1 12 17
M  V30 17 2 15 18
M  V30 18 1 16 19
M  V30 19 1 18 20
M  V30 20 1 19 21
M  V30 21 1 21 22
M  V30 22 1 22 23
M  V30 23 1 6 10
M  V30 24 1 11 14
M  V30 25 1 17 18
M  V30 END BOND
M  V30 BEGIN COLLECTION
M  V30 MDLV30/STEABS ATOMS=(2 6 10)
M  V30 END COLLECTION
M  V30 END CTAB
M  END
>  <Molecule Name>
CHEMBL465

>  <smiles_curated>
CCCCCc1cc(O)c2c(c1)OC(C)(C)[C@@H]1CCC(C)=C[C@@H]21

>  <pchembl_value>
4.9

>  <target_organism>
Homo sapiens

>  <standard_type>
EC50

>  <target_pref_name>
Pregnane X receptor

>  <assay_description>
Activation of human PXR expressed in human HepG2 (DPX-2) cells after 24 hrs by luciferase reporter gene based luminescent analysis,Activation of human PXR expressed in human HepG2 (DPX-2) cells assessed as induction of CYP3A4 after 24 hrs by luminescent analysis,Competitive binding affinity to human PXR LBD (111 to 434) by TR-FRET assay

>  <activity>
0

$$$$
CHEMBL3617295
Actelion Java MolfileCreator 2.0

  0  0  0  0  0  0              0 V3000
M  V30 BEGIN CTAB
M  V30 COUNTS 31 34 0 0 0
M  V30 BEGIN ATOM
M  V30 1 S 0.0 0.0 0.0 0
M  V30 2 O 1.2902 -0.7457 0.0 0
M  V30 3 O -1.3139 0.7575 0.0 0
M  V30 4 N 0.7457 1.3139 0.0 0
M  V30 5 C -0.7575 -1.2902 0.0 0
M  V30 6 C 2.2372 1.3257 0.0 0
M  V30 7 C -0.0118 2.6278 0.0 0
M  V30 8 C -2.2727 -1.2784 0.0 0
M  V30 9 C -0.0118 -2.5805 0.0 0
M  V30 10 C 2.9829 2.6396 0.0 0
M  V30 11 C 2.9829 0.0355 0.0 0
M  V30 12 C 0.7339 3.9417 0.0 0
M  V30 13 C -3.0303 -2.5686 0.0 0
M  V30 14 C -0.7694 -3.8707 0.0 0
M  V30 15 C 4.4744 2.6515 0.0 0
M  V30 16 C 2.2253 3.9536 0.0 0
M  V30 17 C 4.4744 0.0473 0.0 0
M  V30 18 C -2.2845 -3.8589 0.0 0
M  V30 19 C 5.2201 1.3612 0.0 0
M  V30 20 N 5.2201 -1.2429 0.0 0
M  V30 21 F -3.0421 -5.1491 0.0 0
M  V30 22 C 4.4626 -2.5331 0.0 0
M  V30 23 O 2.9474 -2.5213 0.0 0
M  V30 24 C 5.2083 -3.8234 0.0 0
M  V30 25 C 4.4507 -5.1136 0.0 0
M  V30 26 C 6.6998 -3.8115 0.0 0
M  V30 27 F 2.9356 -5.1018 0.0 0
M  V30 28 C 5.1965 -6.4039 0.0 0
M  V30 29 F 7.4455 -2.4976 0.0 0
M  V30 30 C 7.4455 -5.1018 0.0 0
M  V30 31 C 6.688 -6.392 0.0 0
M  V30 END ATOM
M  V30 BEGIN BOND
M  V30 1 2 1 2
M  V30 2 2 1 3
M  V30 3 1 1 4
M  V30 4 1 1 5
M  V30 5 1 4 6
M  V30 6 1 4 7
M  V30 7 2 5 8
M  V30 8 1 5 9
M  V30 9 2 6 10
M  V30 10 1 6 11
M  V30 11 1 7 12
M  V30 12 1 8 13
M  V30 13 2 9 14
M  V30 14 1 10 15
M  V30 15 1 10 16
M  V30 16 2 11 17
M  V30 17 2 13 18
M  V30 18 2 15 19
M  V30 19 1 17 20
M  V30 20 1 18 21
M  V30 21 1 20 22
M  V30 22 2 22 23
M  V30 23 1 22 24
M  V30 24 2 24 25
M  V30 25 1 24 26
M  V30 26 1 25 27
M  V30 27 1 25 28
M  V30 28 1 26 29
M  V30 29 2 26 30
M  V30 30 2 28 31
M  V30 31 1 12 16
M  V30 32 1 14 18
M  V30 33 1 17 19
M  V30 34 1 30 31
M  V30 END BOND
M  V30 END CTAB
M  END
>  <Molecule Name>
CHEMBL3617295

>  <smiles_curated>
O=C(Nc1ccc2CCCN(S(=O)(=O)c3ccc(F)cc3)c2c1)c1c(F)cccc1F

>  <pchembl_value>
5.96

>  <target_organism>
Homo sapiens

>  <standard_type>
EC50

>  <target_pref_name>
Pregnane X receptor

>  <assay_description>
Antagonist activity at GAL4-fused human PXR expressed in HEK293 cells assessed as inhibition of T0901317-stimulated transcriptional activity after 20 hrs by dual-glo luciferase reporter gene assay

>  <activity>
0

$$$$
CHEMBL1430231
Actelion Java MolfileCreator 2.0

  0  0  0  0  0  0              0 V3000
M  V30 BEGIN CTAB
M  V30 COUNTS 17 18 0 0 0
M  V30 BEGIN ATOM
M  V30 1 Br 0.0 0.0 0.0 0
M  V30 2 C -0.7557 -1.2872 0.0 0
M  V30 3 C -2.2673 -1.2754 0.0 0
M  V30 4 C -0.0118 -2.5744 0.0 0
M  V30 5 N -3.0231 -2.5626 0.0 0
M  V30 6 N -3.0231 0.0354 0.0 0
M  V30 7 N -0.7676 -3.8616 0.0 0
M  V30 8 C 1.4761 -2.5626 0.0 0
M  V30 9 C -2.2791 -3.8498 0.0 0
M  V30 10 C -2.2791 1.3462 0.0 0
M  V30 11 N -3.0349 -5.137 0.0 0
M  V30 12 C -0.7912 1.358 0.0 0
M  V30 13 C -3.0349 2.657 0.0 0
M  V30 14 C -0.0472 2.6689 0.0 0
M  V30 15 C -2.291 3.9679 0.0 0
M  V30 16 C -0.803 3.9797 0.0 0
M  V30 17 Cl -0.059 5.2905 0.0 0
M  V30 END ATOM
M  V30 BEGIN BOND
M  V30 1 1 1 2
M  V30 2 2 2 3
M  V30 3 1 2 4
M  V30 4 1 3 5
M  V30 5 1 3 6
M  V30 6 2 4 7
M  V30 7 1 4 8
M  V30 8 2 5 9
M  V30 9 1 6 10
M  V30 10 1 9 11
M  V30 11 2 10 12
M  V30 12 1 10 13
M  V30 13 1 12 14
M  V30 14 2 13 15
M  V30 15 2 14 16
M  V30 16 1 16 17
M  V30 17 1 7 9
M  V30 18 1 15 16
M  V30 END BOND
M  V30 END CTAB
M  END
>  <Molecule Name>
CHEMBL1430231

>  <smiles_curated>
Cc1nc(N)nc(Nc2ccc(Cl)cc2)c1Br

>  <pchembl_value>
4.01

>  <target_organism>
Homo sapiens

>  <standard_type>
EC50

>  <target_pref_name>
Pregnane X receptor

>  <assay_description>
PUBCHEM_BIOASSAY: Luminescence-based counterscreen for activators of the Aryl Hydrocarbon Receptor (AHR): cell-based high throughput dose response screening assay for activators of the Pregnane X Receptor (PXR). (Class of assay: confirmatory) [Related pubchem assays: 2796 (Primary screen (AHR activators in singlicate)), 2845 (Confirmation screen (AHR activators in triplicate)), 434939 (Counterscreen (PXR activators in triplicate)), 2804 (Summary (AHR activators))]

>  <activity>
0

$$$$
CHEMBL596
Actelion Java MolfileCreator 2.0

  0  0  0  0  0  0              0 V3000
M  V30 BEGIN CTAB
M  V30 COUNTS 25 27 0 0 0
M  V30 BEGIN ATOM
M  V30 1 O 0.0 0.0 0.0 0
M  V30 2 C -0.7556 -1.2868 0.0 0
M  V30 3 N -2.2668 -1.275 0.0 0
M  V30 4 C -0.0118 -2.5737 0.0 0
M  V30 5 C -3.0224 0.0354 0.0 0
M  V30 6 C -3.0224 -2.5619 0.0 0
M  V30 7 C 1.4757 -2.5619 0.0 0
M  V30 8 C -2.2786 1.3459 0.0 0
M  V30 9 C -4.5336 0.0472 0.0 0
M  V30 10 C -4.5336 -2.5501 0.0 0
M  V30 11 C -2.2786 -3.8488 0.0 0
M  V30 12 C -3.0342 2.6564 0.0 0
M  V30 13 C -5.2892 1.3577 0.0 0
M  V30 14 C -5.2892 -3.837 0.0 0
M  V30 15 C -3.0342 -5.1357 0.0 0
M  V30 16 C -4.5454 2.6682 0.0 0
M  V30 17 N -4.5454 -5.1239 0.0 0
M  V30 18 C -5.301 -6.4108 0.0 0
M  V30 19 C -6.8122 -6.399 0.0 0
M  V30 20 C -7.5678 -7.6859 0.0 0
M  V30 21 C -9.079 -7.674 0.0 0
M  V30 22 C -6.824 -8.9727 0.0 0
M  V30 23 C -9.8346 -8.9609 0.0 0
M  V30 24 C -7.5796 -10.2596 0.0 0
M  V30 25 C -9.0908 -10.2478 0.0 0
M  V30 END ATOM
M  V30 BEGIN BOND
M  V30 1 2 1 2
M  V30 2 1 2 3
M  V30 3 1 2 4
M  V30 4 1 3 5
M  V30 5 1 3 6
M  V30 6 1 4 7
M  V30 7 2 5 8
M  V30 8 1 5 9
M  V30 9 1 6 10
M  V30 10 1 6 11
M  V30 11 1 8 12
M  V30 12 2 9 13
M  V30 13 1 10 14
M  V30 14 1 11 15
M  V30 15 2 12 16
M  V30 16 1 14 17
M  V30 17 1 17 18
M  V30 18 1 18 19
M  V30 19 1 19 20
M  V30 20 2 20 21
M  V30 21 1 20 22
M  V30 22 1 21 23
M  V30 23 2 22 24
M  V30 24 2 23 25
M  V30 25 1 13 16
M  V30 26 1 15 17
M  V30 27 1 24 25
M  V30 END BOND
M  V30 END CTAB
M  END
>  <Molecule Name>
CHEMBL596

>  <smiles_curated>
CCC(=O)N(c1ccccc1)C1CCN(CCc2ccccc2)CC1

>  <pchembl_value>
4.5

>  <target_organism>
Homo sapiens

>  <standard_type>
EC50

>  <target_pref_name>
Pregnane X receptor

>  <assay_description>
Activation of human PXR expressed in human HepG2 (DPX-2) cells after 24 hrs by luciferase reporter gene based luminescent analysis,Activation of human PXR expressed in human HepG2 (DPX-2) cells assessed as induction of CYP3A4 after 24 hrs by luminescent analysis,Competitive binding affinity to human PXR LBD (111 to 434) by TR-FRET assay

>  <activity>
0

$$$$
CHEMBL3189011
Actelion Java MolfileCreator 2.0

  0  0  0  0  0  0              0 V3000
M  V30 BEGIN CTAB
M  V30 COUNTS 28 31 0 0 0
M  V30 BEGIN ATOM
M  V30 1 O 0.0 0.0 0.0 0
M  V30 2 C -0.757 -1.2893 0.0 0
M  V30 3 C -0.0118 -2.5786 0.0 0
M  V30 4 C -2.2711 -1.2775 0.0 0
M  V30 5 C -0.7688 -3.868 0.0 0
M  V30 6 C -3.0281 -2.5668 0.0 0
M  V30 7 C -2.2829 -3.8561 0.0 0 CFG=2
M  V30 8 C -0.0236 -5.1573 0.0 0
M  V30 9 C -3.04 -5.1455 0.0 0 CFG=2
M  V30 10 C -3.797 -3.8443 0.0 0
M  V30 11 C -0.7807 -6.4467 0.0 0
M  V30 12 C -2.2947 -6.4348 0.0 0 CFG=1
M  V30 13 C -4.554 -5.1337 0.0 0
M  V30 14 C -3.0518 -7.7242 0.0 0 CFG=1
M  V30 15 C -5.3111 -6.423 0.0 0
M  V30 16 C -4.5659 -7.7123 0.0 0 CFG=2
M  V30 17 C -2.6023 -9.1436 0.0 0
M  V30 18 C -5.039 -9.1318 0.0 0 CFG=2
M  V30 19 C -6.0681 -7.8543 0.0 0
M  V30 20 C -3.8325 -10.019 0.0 0
M  V30 21 O -6.4821 -9.5813 0.0 0
M  V30 22 C -6.8015 -11.0362 0.0 0
M  V30 23 O -5.7014 -12.0299 0.0 0
M  V30 24 C -8.2446 -11.4857 0.0 0
M  V30 25 C -8.564 -12.9407 0.0 0
M  V30 26 C -10.0071 -13.3902 0.0 0
M  V30 27 C -10.3265 -14.8451 0.0 0
M  V30 28 C -11.1309 -12.3729 0.0 0
M  V30 END ATOM
M  V30 BEGIN BOND
M  V30 1 2 1 2
M  V30 2 1 2 3
M  V30 3 1 2 4
M  V30 4 2 3 5
M  V30 5 1 4 6
M  V30 6 1 5 7
M  V30 7 1 5 8
M  V30 8 1 7 9
M  V30 9 1 7 10 CFG=3
M  V30 10 1 8 11
M  V30 11 1 9 12
M  V30 12 1 9 13 CFG=3
M  V30 13 1 12 14
M  V30 14 1 13 15
M  V30 15 1 14 16
M  V30 16 1 14 17 CFG=3
M  V30 17 1 16 18
M  V30 18 1 16 19 CFG=3
M  V30 19 1 17 20
M  V30 20 1 18 21 CFG=3
M  V30 21 1 21 22
M  V30 22 2 22 23
M  V30 23 1 22 24
M  V30 24 1 24 25
M  V30 25 1 25 26
M  V30 26 1 26 27
M  V30 27 1 26 28
M  V30 28 1 6 7
M  V30 29 1 12 11 CFG=1
M  V30 30 1 15 16
M  V30 31 1 18 20
M  V30 END BOND
M  V30 BEGIN COLLECTION
M  V30 MDLV30/STEABS ATOMS=(6 7 9 12 14 16 18)
M  V30 END COLLECTION
M  V30 END CTAB
M  END
>  <Molecule Name>
CHEMBL3189011

>  <smiles_curated>
CC(C)CCC(=O)O[C@H]1CC[C@H]2[C@@H]3CCC4=CC(=O)CC[C@]4(C)[C@H]3CC[C@]12C

>  <pchembl_value>
4.55

>  <target_organism>
Homo sapiens

>  <standard_type>
EC50

>  <target_pref_name>
Pregnane X receptor

>  <assay_description>
Activation of human PXR expressed in human HepG2 (DPX-2) cells after 24 hrs by luciferase reporter gene based luminescent analysis,Activation of human PXR expressed in human HepG2 (DPX-2) cells assessed as induction of CYP3A4 after 24 hrs by luminescent analysis,Competitive binding affinity to human PXR LBD (111 to 434) by TR-FRET assay

>  <activity>
0

$$$$
CHEMBL1200807
Actelion Java MolfileCreator 2.0

  0  0  0  0  0  0              0 V3000
M  V30 BEGIN CTAB
M  V30 COUNTS 24 27 0 0 0
M  V30 BEGIN ATOM
M  V30 1 O 0.0 0.0 0.0 0
M  V30 2 N 0.7451 -1.2892 0.0 0
M  V30 3 C -0.0118 -2.5785 0.0 0
M  V30 4 C 0.7333 -3.8677 0.0 0
M  V30 5 C -1.5258 -2.5666 0.0 0
M  V30 6 C -0.0236 -5.157 0.0 0
M  V30 7 C -2.2828 -3.8559 0.0 0
M  V30 8 C -1.5376 -5.1451 0.0 0 CFG=2
M  V30 9 C 0.7215 -6.4462 0.0 0
M  V30 10 C -2.2946 -6.4344 0.0 0 CFG=2
M  V30 11 C -0.0354 -7.7355 0.0 0
M  V30 12 C -1.5494 -7.7237 0.0 0 CFG=1
M  V30 13 C -3.8086 -6.4226 0.0 0
M  V30 14 C -2.3064 -9.0129 0.0 0 CFG=1
M  V30 15 C -4.5656 -7.7118 0.0 0
M  V30 16 C -3.8204 -9.0011 0.0 0 CFG=2
M  V30 17 C -1.857 -10.4323 0.0 0
M  V30 18 C -4.2935 -10.4204 0.0 0 CFG=2
M  V30 19 C -5.3226 -9.143 0.0 0
M  V30 20 C -3.0871 -11.3075 0.0 0
M  V30 21 O -5.7839 -10.1484 0.0 0
M  V30 22 C -5.0505 -11.7097 0.0 0
M  V30 23 C -6.2215 -7.9129 0.0 0
M  V30 24 C -5.8075 -12.999 0.0 0
M  V30 END ATOM
M  V30 BEGIN BOND
M  V30 1 1 1 2
M  V30 2 2 2 3
M  V30 3 1 3 4
M  V30 4 1 3 5
M  V30 5 2 4 6
M  V30 6 1 5 7
M  V30 7 1 6 8
M  V30 8 1 6 9
M  V30 9 1 8 10
M  V30 10 1 9 11
M  V30 11 1 10 12
M  V30 12 1 10 13 CFG=3
M  V30 13 1 12 14
M  V30 14 1 13 15
M  V30 15 1 14 16
M  V30 16 1 14 17 CFG=3
M  V30 17 1 16 18
M  V30 18 1 16 19 CFG=3
M  V30 19 1 17 20
M  V30 20 1 18 21 CFG=3
M  V30 21 1 18 22
M  V30 22 1 19 23
M  V30 23 3 22 24
M  V30 24 1 8 7 CFG=1
M  V30 25 1 12 11 CFG=1
M  V30 26 1 15 16
M  V30 27 1 18 20
M  V30 END BOND
M  V30 BEGIN COLLECTION
M  V30 MDLV30/STEABS ATOMS=(6 8 10 12 14 16 18)
M  V30 END COLLECTION
M  V30 END CTAB
M  END
>  <Molecule Name>
CHEMBL1200807

>  <smiles_curated>
C#C[C@]1(O)CC[C@H]2[C@@H]3CCC4=C/C(=N/O)CC[C@@H]4[C@H]3CC[C@@]21CC

>  <pchembl_value>
4.6

>  <target_organism>
Homo sapiens

>  <standard_type>
EC50

>  <target_pref_name>
Pregnane X receptor

>  <assay_description>
Activation of human PXR expressed in human HepG2 (DPX-2) cells after 24 hrs by luciferase reporter gene based luminescent analysis

>  <activity>
0

$$$$
CHEMBL4476183
Actelion Java MolfileCreator 2.0

  0  0  0  0  0  0              0 V3000
M  V30 BEGIN CTAB
M  V30 COUNTS 29 33 0 0 0
M  V30 BEGIN ATOM
M  V30 1 S 0.0 0.0 0.0 0
M  V30 2 C -1.4359 0.4708 0.0 0
M  V30 3 C -0.0117 -1.483 0.0 0
M  V30 4 C -2.3305 -0.7297 0.0 0
M  V30 5 C -1.4477 -1.9303 0.0 0
M  V30 6 C -3.837 -0.7179 0.0 0 CFG=2
M  V30 7 N -4.5903 0.5885 0.0 0
M  V30 8 C -4.5903 -2.0009 0.0 0 CFG=2
M  V30 9 C -6.0969 0.6002 0.0 0
M  V30 10 C -6.0969 -1.9891 0.0 0 CFG=2
M  V30 11 C -4.1431 -3.4133 0.0 0
M  V30 12 C -6.8502 -0.6826 0.0 0
M  V30 13 C -6.8502 1.9067 0.0 0
M  V30 14 N -6.5677 -3.4015 0.0 0
M  V30 15 C -5.3672 -4.2843 0.0 0
M  V30 16 C -8.3568 -0.6709 0.0 0
M  V30 17 C -8.3568 1.9185 0.0 0
M  V30 18 C -6.1087 3.2132 0.0 0
M  V30 19 C -8.0037 -3.8488 0.0 0
M  V30 20 C -9.1101 0.6355 0.0 0
M  V30 21 C -9.1101 3.225 0.0 0
M  V30 22 C -6.862 4.5197 0.0 0
M  V30 23 O -9.1219 -2.8366 0.0 0
M  V30 24 O -8.3215 -5.2965 0.0 0
M  V30 25 C -8.3686 4.5315 0.0 0
M  V30 26 C -9.7575 -5.7438 0.0 0
M  V30 27 C -9.3102 -7.1562 0.0 0
M  V30 28 C -10.2283 -4.3078 0.0 0
M  V30 29 C -11.1934 -6.1911 0.0 0
M  V30 END ATOM
M  V30 BEGIN BOND
M  V30 1 1 1 2
M  V30 2 1 1 3
M  V30 3 2 2 4
M  V30 4 2 3 5
M  V30 5 1 6 4 CFG=1
M  V30 6 1 6 7
M  V30 7 1 6 8
M  V30 8 1 7 9
M  V30 9 1 8 10
M  V30 10 1 8 11 CFG=1
M  V30 11 2 9 12
M  V30 12 1 9 13
M  V30 13 1 10 14 CFG=1
M  V30 14 1 11 15
M  V30 15 1 12 16
M  V30 16 2 13 17
M  V30 17 1 13 18
M  V30 18 1 14 19
M  V30 19 2 16 20
M  V30 20 1 17 21
M  V30 21 1 18 22
M  V30 22 2 19 23
M  V30 23 1 19 24
M  V30 24 1 21 25
M  V30 25 1 24 26
M  V30 26 1 26 27
M  V30 27 1 26 28
M  V30 28 1 26 29
M  V30 29 1 4 5
M  V30 30 1 10 12
M  V30 31 1 14 15
M  V30 32 1 17 20
M  V30 33 1 22 25
M  V30 END BOND
M  V30 BEGIN COLLECTION
M  V30 MDLV30/STEABS ATOMS=(3 6 8 10)
M  V30 END COLLECTION
M  V30 END CTAB
M  END
>  <Molecule Name>
CHEMBL4476183

>  <smiles_curated>
CC(C)(C)OC(=O)N1CC[C@@H]2[C@H](c3cscc3)Nc3c(ccc4c3CCCC4)[C@@H]21

>  <pchembl_value>
5.08

>  <target_organism>
Homo sapiens

>  <standard_type>
EC50

>  <target_pref_name>
Pregnane X receptor

>  <assay_description>
Agonist activity at PXR (unknown origin) by AlphaScreen assay

>  <activity>
0

$$$$
CHEMBL2104261
Actelion Java MolfileCreator 2.0

  0  0  0  0  0  0              0 V3000
M  V30 BEGIN CTAB
M  V30 COUNTS 19 21 0 0 0
M  V30 BEGIN ATOM
M  V30 1 O 0.0 0.0 0.0 0
M  V30 2 C 0.449 -1.4179 0.0 0
M  V30 3 C -0.449 -2.6232 0.0 0
M  V30 4 C 1.8669 -1.8669 0.0 0
M  V30 5 C -1.9615 -2.6114 0.0 0
M  V30 6 C 0.4253 -3.8285 0.0 0
M  V30 7 C 0.4253 -2.316 0.0 0
M  V30 8 C 2.7414 -3.0722 0.0 0
M  V30 9 C 2.316 -0.4253 0.0 0
M  V30 10 C -2.7177 -3.8994 0.0 0
M  V30 11 C 1.8433 -4.2775 0.0 0
M  V30 12 C -1.0752 -2.0915 0.0 0
M  V30 13 C -0.2481 -0.9571 0.0 0
M  V30 14 C -4.2302 -3.8875 0.0 0
M  V30 15 C -1.9733 -5.1874 0.0 0
M  V30 16 C -4.9865 -5.1755 0.0 0
M  V30 17 C -2.7295 -6.4753 0.0 0
M  V30 18 C -4.242 -6.4635 0.0 0
M  V30 19 C -4.9983 -7.7515 0.0 0
M  V30 END ATOM
M  V30 BEGIN BOND
M  V30 1 2 1 2
M  V30 2 1 2 3
M  V30 3 1 2 4
M  V30 4 2 3 5
M  V30 5 1 3 6
M  V30 6 1 4 7
M  V30 7 1 4 8
M  V30 8 1 4 9
M  V30 9 1 5 10
M  V30 10 1 6 11
M  V30 11 1 7 12
M  V30 12 1 7 13
M  V30 13 2 10 14
M  V30 14 1 10 15
M  V30 15 1 14 16
M  V30 16 2 15 17
M  V30 17 2 16 18
M  V30 18 1 18 19
M  V30 19 1 6 7
M  V30 20 1 8 11
M  V30 21 1 17 18
M  V30 END BOND
M  V30 END CTAB
M  END
>  <Molecule Name>
CHEMBL2104261

>  <smiles_curated>
Cc1ccc(/C=C2/C(=O)C3(C)CCC2C3(C)C)cc1

>  <pchembl_value>
4.5

>  <target_organism>
Homo sapiens

>  <standard_type>
EC50

>  <target_pref_name>
Pregnane X receptor

>  <assay_description>
Activation of human PXR expressed in human HepG2 (DPX-2) cells after 24 hrs by luciferase reporter gene based luminescent analysis,Activation of human PXR expressed in human HepG2 (DPX-2) cells assessed as induction of CYP3A4 after 24 hrs by luminescent analysis,Competitive binding affinity to human PXR LBD (111 to 434) by TR-FRET assay

>  <activity>
0

$$$$
CHEMBL3318977
Actelion Java MolfileCreator 2.0

  0  0  0  0  0  0              0 V3000
M  V30 BEGIN CTAB
M  V30 COUNTS 23 27 0 0 0
M  V30 BEGIN ATOM
M  V30 1 Cl 0.0 0.0 0.0 0
M  V30 2 C -0.8057 -1.2679 0.0 0
M  V30 3 C -0.1066 -2.5832 0.0 0
M  V30 4 C -2.3225 -1.2086 0.0 0
M  V30 5 C -0.9124 -3.8511 0.0 0
M  V30 6 C -3.1283 -2.4766 0.0 0
M  V30 7 C -2.4292 -3.7919 0.0 0
M  V30 8 C -3.2349 -5.0598 0.0 0
M  V30 9 C -2.1329 -6.0552 0.0 0
M  V30 10 C -4.6451 -4.4792 0.0 0
M  V30 11 C -4.4318 -5.9722 0.0 0
M  V30 12 N -2.2988 -7.5364 0.0 0
M  V30 13 N -0.6754 -5.7353 0.0 0
M  V30 14 N -0.9361 -8.1408 0.0 0
M  V30 15 C 0.071 -7.0269 0.0 0
M  V30 16 C 0.071 -4.4199 0.0 0
M  V30 17 C 1.5641 -7.015 0.0 0
M  V30 18 C 1.5641 -4.4081 0.0 0
M  V30 19 C 2.3107 -5.6997 0.0 0
M  V30 20 C 2.3107 -8.3067 0.0 0
M  V30 21 C 1.9078 -9.7523 0.0 0
M  V30 22 C 3.7563 -8.6859 0.0 0
M  V30 23 C 3.3534 -10.1315 0.0 0
M  V30 END ATOM
M  V30 BEGIN BOND
M  V30 1 1 1 2
M  V30 2 2 2 3
M  V30 3 1 2 4
M  V30 4 1 3 5
M  V30 5 2 4 6
M  V30 6 2 5 7
M  V30 7 1 7 8
M  V30 8 1 8 9
M  V30 9 1 8 10
M  V30 10 1 8 11
M  V30 11 2 9 12
M  V30 12 1 9 13
M  V30 13 1 12 14
M  V30 14 1 13 15
M  V30 15 1 13 16
M  V30 16 1 15 17
M  V30 17 2 16 18
M  V30 18 2 17 19
M  V30 19 1 17 20
M  V30 20 1 20 21
M  V30 21 1 20 22
M  V30 22 1 21 23
M  V30 23 1 6 7
M  V30 24 1 10 11
M  V30 25 2 14 15
M  V30 26 1 18 19
M  V30 27 1 22 23
M  V30 END BOND
M  V30 END CTAB
M  END
>  <Molecule Name>
CHEMBL3318977

>  <smiles_curated>
Clc1ccc(C2(c3nnc4c(C5CCC5)cccn34)CC2)cc1

>  <pchembl_value>
6.05

>  <target_organism>
Homo sapiens

>  <standard_type>
EC50

>  <target_pref_name>
Pregnane X receptor

>  <assay_description>
Activation of PXR (unknown origin)

>  <activity>
1

$$$$
CHEMBL3318972
Actelion Java MolfileCreator 2.0

  0  0  0  0  0  0              0 V3000
M  V30 BEGIN CTAB
M  V30 COUNTS 27 31 0 0 0
M  V30 BEGIN ATOM
M  V30 1 Cl 0.0 0.0 0.0 0
M  V30 2 C -0.8055 -1.2675 0.0 0
M  V30 3 C -0.1066 -2.5823 0.0 0
M  V30 4 C -2.3217 -1.2082 0.0 0
M  V30 5 C -0.9121 -3.8499 0.0 0
M  V30 6 C -3.1273 -2.4757 0.0 0
M  V30 7 C -2.4283 -3.7906 0.0 0
M  V30 8 C -3.2339 -5.0581 0.0 0
M  V30 9 C -2.1322 -6.0532 0.0 0
M  V30 10 C -4.6435 -4.4777 0.0 0
M  V30 11 C -4.4303 -5.9703 0.0 0
M  V30 12 N -2.298 -7.5339 0.0 0
M  V30 13 N -0.6752 -5.7333 0.0 0
M  V30 14 N -0.9358 -8.138 0.0 0
M  V30 15 C 0.071 -7.0245 0.0 0
M  V30 16 C 0.071 -4.4185 0.0 0
M  V30 17 C 1.5636 -7.0127 0.0 0
M  V30 18 C 1.5636 -4.4066 0.0 0
M  V30 19 O 2.3099 -8.3039 0.0 0
M  V30 20 C 2.3099 -5.6978 0.0 0
M  V30 21 C 3.8025 -8.292 0.0 0
M  V30 22 C 4.5488 -6.9772 0.0 0
M  V30 23 C 4.5488 -9.5832 0.0 0
M  V30 24 N 6.0413 -6.9653 0.0 0
M  V30 25 C 3.7906 -5.6623 0.0 0
M  V30 26 C 6.0413 -9.5714 0.0 0
M  V30 27 C 6.7876 -8.2565 0.0 0
M  V30 END ATOM
M  V30 BEGIN BOND
M  V30 1 1 1 2
M  V30 2 2 2 3
M  V30 3 1 2 4
M  V30 4 1 3 5
M  V30 5 2 4 6
M  V30 6 2 5 7
M  V30 7 1 7 8
M  V30 8 1 8 9
M  V30 9 1 8 10
M  V30 10 1 8 11
M  V30 11 2 9 12
M  V30 12 1 9 13
M  V30 13 1 12 14
M  V30 14 1 13 15
M  V30 15 1 13 16
M  V30 16 1 15 17
M  V30 17 2 16 18
M  V30 18 1 17 19
M  V30 19 2 17 20
M  V30 20 1 19 21
M  V30 21 2 21 22
M  V30 22 1 21 23
M  V30 23 1 22 24
M  V30 24 1 22 25
M  V30 25 2 23 26
M  V30 26 2 24 27
M  V30 27 1 6 7
M  V30 28 1 10 11
M  V30 29 2 14 15
M  V30 30 1 18 20
M  V30 31 1 26 27
M  V30 END BOND
M  V30 END CTAB
M  END
>  <Molecule Name>
CHEMBL3318972

>  <smiles_curated>
Cc1ncccc1Oc1cccn2c(C3(c4ccc(Cl)cc4)CC3)nnc12

>  <pchembl_value>
5.55

>  <target_organism>
Homo sapiens

>  <standard_type>
EC50

>  <target_pref_name>
Pregnane X receptor

>  <assay_description>
Activation of PXR (unknown origin)

>  <activity>
0

$$$$
CHEMBL4469684
Actelion Java MolfileCreator 2.0

  0  0  0  0  0  0              0 V3000
M  V30 BEGIN CTAB
M  V30 COUNTS 23 26 0 0 0
M  V30 BEGIN ATOM
M  V30 1 Cl 0.0 0.0 0.0 0
M  V30 2 C 0.6982 1.3372 0.0 0
M  V30 3 C -0.1065 2.6271 0.0 0
M  V30 4 C 2.1892 1.3964 0.0 0
M  V30 5 C 0.5916 3.9643 0.0 0
M  V30 6 C 2.8874 2.7336 0.0 0
M  V30 7 C 2.0827 4.0235 0.0 0
M  V30 8 C 2.7809 5.3607 0.0 0
M  V30 9 C 4.201 4.911 0.0 0
M  V30 10 C 1.5857 6.2956 0.0 0
M  V30 11 C 2.9821 6.8637 0.0 0
M  V30 12 N 5.4081 5.8104 0.0 0
M  V30 13 N 4.6507 3.491 0.0 0
M  V30 14 N 6.6151 4.9347 0.0 0
M  V30 15 C 6.1418 3.5028 0.0 0
M  V30 16 C 3.8933 2.2011 0.0 0
M  V30 17 C 6.8873 2.2129 0.0 0
M  V30 18 C 4.6389 0.9112 0.0 0
M  V30 19 C 6.1299 0.923 0.0 0
M  V30 20 C 8.3784 2.2247 0.0 0
M  V30 21 C 9.1239 0.9348 0.0 0
M  V30 22 C 10.615 0.9467 0.0 0
M  V30 23 O 11.3606 -0.3431 0.0 0
M  V30 END ATOM
M  V30 BEGIN BOND
M  V30 1 1 1 2
M  V30 2 2 2 3
M  V30 3 1 2 4
M  V30 4 1 3 5
M  V30 5 2 4 6
M  V30 6 2 5 7
M  V30 7 1 7 8
M  V30 8 1 8 9
M  V30 9 1 8 10
M  V30 10 1 8 11
M  V30 11 2 9 12
M  V30 12 1 9 13
M  V30 13 1 12 14
M  V30 14 1 13 15
M  V30 15 1 13 16
M  V30 16 1 15 17
M  V30 17 2 16 18
M  V30 18 2 17 19
M  V30 19 1 17 20
M  V30 20 1 20 21
M  V30 21 1 21 22
M  V30 22 1 22 23
M  V30 23 1 6 7
M  V30 24 1 10 11
M  V30 25 2 14 15
M  V30 26 1 18 19
M  V30 END BOND
M  V30 END CTAB
M  END
>  <Molecule Name>
CHEMBL4469684

>  <smiles_curated>
OCCCc1cccn2c(C3(c4ccc(Cl)cc4)CC3)nnc12

>  <pchembl_value>
4.6

>  <target_organism>
Homo sapiens

>  <standard_type>
EC50

>  <target_pref_name>
Pregnane X receptor

>  <assay_description>
Activation of PXR (unknown origin)

>  <activity>
0

$$$$
CHEMBL4084567
Actelion Java MolfileCreator 2.0

  0  0  0  0  0  0              0 V3000
M  V30 BEGIN CTAB
M  V30 COUNTS 24 24 0 0 0
M  V30 BEGIN ATOM
M  V30 1 P 0.0 0.0 0.0 0
M  V30 2 O 1.4892 0.0118 0.0 0
M  V30 3 O -0.0118 -1.4892 0.0 0
M  V30 4 O -0.0118 1.5128 0.0 0
M  V30 5 C -1.5128 0.0118 0.0 0
M  V30 6 C 1.2764 -2.222 0.0 0
M  V30 7 C 1.2764 2.2692 0.0 0
M  V30 8 P -2.2692 -1.2764 0.0 0
M  V30 9 C -2.2692 1.3237 0.0 0
M  V30 10 C 1.2646 -3.7112 0.0 0
M  V30 11 C 1.2646 3.7821 0.0 0
M  V30 12 O -3.0257 -2.5647 0.0 0
M  V30 13 O -0.9809 -2.0092 0.0 0
M  V30 14 O -3.5812 -0.52 0.0 0
M  V30 15 C -3.7821 1.3355 0.0 0
M  V30 16 C -0.9928 -3.4984 0.0 0
M  V30 17 C -4.8931 -1.2528 0.0 0
M  V30 18 C -4.5385 0.0472 0.0 0
M  V30 19 C -4.5385 2.6474 0.0 0
M  V30 20 C 0.2954 -4.2312 0.0 0
M  V30 21 C -4.9049 -2.742 0.0 0
M  V30 22 C -6.0514 0.059 0.0 0
M  V30 23 C -6.0514 2.6593 0.0 0
M  V30 24 C -6.8078 1.371 0.0 0
M  V30 END ATOM
M  V30 BEGIN BOND
M  V30 1 2 1 2
M  V30 2 1 1 3
M  V30 3 1 1 4
M  V30 4 1 1 5
M  V30 5 1 3 6
M  V30 6 1 4 7
M  V30 7 1 5 8
M  V30 8 2 5 9
M  V30 9 1 6 10
M  V30 10 1 7 11
M  V30 11 2 8 12
M  V30 12 1 8 13
M  V30 13 1 8 14
M  V30 14 1 9 15
M  V30 15 1 13 16
M  V30 16 1 14 17
M  V30 17 2 15 18
M  V30 18 1 15 19
M  V30 19 1 16 20
M  V30 20 1 17 21
M  V30 21 1 18 22
M  V30 22 2 19 23
M  V30 23 2 22 24
M  V30 24 1 23 24
M  V30 END BOND
M  V30 END CTAB
M  END
>  <Molecule Name>
CHEMBL4084567

>  <smiles_curated>
CCOP(=O)(OCC)C(=Cc1ccccc1)P(=O)(OCC)OCC

>  <pchembl_value>
6.57

>  <target_organism>
Homo sapiens

>  <standard_type>
EC50

>  <target_pref_name>
Pregnane X receptor

>  <assay_description>
Activation of PXR in human LS180 cells assessed as P-gp induction by measuring intracellular accumulation of rhodamine 123 preincubated for 48 hrs followed by rhodamine 123 addition after 40 mins and measured after 90 mins by fluorescence assay

>  <activity>
1

$$$$
CHEMBL3334727
Actelion Java MolfileCreator 2.0

  0  0  0  0  0  0              0 V3000
M  V30 BEGIN CTAB
M  V30 COUNTS 32 34 0 0 0
M  V30 BEGIN ATOM
M  V30 1 Cl 0.0 0.0 0.0 0
M  V30 2 C 1.408 -0.5011 0.0 0
M  V30 3 C 2.5536 0.4892 0.0 0
M  V30 4 C 1.6586 -1.9808 0.0 0
M  V30 5 C 3.9617 -0.0119 0.0 0
M  V30 6 C 3.0667 -2.482 0.0 0
M  V30 7 C 4.2123 -1.4916 0.0 0
M  V30 8 C 5.6204 -1.9927 0.0 0 CFG=2
M  V30 9 O 5.8709 -0.4892 0.0 0
M  V30 10 C 4.8566 -3.2934 0.0 0
M  V30 11 C 7.1239 -1.9808 0.0 0
M  V30 12 C 5.6084 -4.5941 0.0 0
M  V30 13 C 3.6872 -4.26 0.0 0
M  V30 14 C 3.7469 -2.7445 0.0 0
M  V30 15 C 7.8757 -3.2815 0.0 0
M  V30 16 N 7.112 -4.5822 0.0 0
M  V30 17 C 7.8637 -5.8829 0.0 0
M  V30 18 O 9.3673 -5.8709 0.0 0
M  V30 19 C 7.1 -7.1836 0.0 0 CFG=2
M  V30 20 N 5.5726 -7.1716 0.0 0
M  V30 21 C 7.8518 -8.4842 0.0 0
M  V30 22 C 4.8089 -8.4723 0.0 0
M  V30 23 C 7.0881 -9.7849 0.0 0
M  V30 24 C 9.3554 -8.4723 0.0 0
M  V30 25 O 5.5607 -9.773 0.0 0
M  V30 26 N 3.2815 -8.4604 0.0 0
M  V30 27 C 2.5178 -9.7611 0.0 0 CFG=2
M  V30 28 C 1.0023 -9.9043 0.0 0
M  V30 29 C 3.1264 -11.1334 0.0 0
M  V30 30 C 0.6801 -11.372 0.0 0 CFG=2
M  V30 31 C 1.9927 -12.1357 0.0 0
M  V30 32 O -0.7159 -11.9806 0.0 0
M  V30 END ATOM
M  V30 BEGIN BOND
M  V30 1 1 1 2
M  V30 2 2 2 3
M  V30 3 1 2 4
M  V30 4 1 3 5
M  V30 5 2 4 6
M  V30 6 2 5 7
M  V30 7 1 7 8
M  V30 8 1 8 9 CFG=3
M  V30 9 1 8 10
M  V30 10 1 8 11
M  V30 11 1 10 12
M  V30 12 1 10 13
M  V30 13 1 10 14
M  V30 14 1 11 15
M  V30 15 1 12 16
M  V30 16 1 16 17
M  V30 17 2 17 18
M  V30 18 1 17 19
M  V30 19 1 19 20 CFG=1
M  V30 20 1 19 21
M  V30 21 1 20 22
M  V30 22 1 21 23
M  V30 23 1 21 24
M  V30 24 2 22 25
M  V30 25 1 22 26
M  V30 26 1 27 26 CFG=1
M  V30 27 1 27 28
M  V30 28 1 27 29
M  V30 29 1 28 30
M  V30 30 1 29 31
M  V30 31 1 30 32 CFG=3
M  V30 32 1 6 7
M  V30 33 1 15 16
M  V30 34 1 30 31
M  V30 END BOND
M  V30 BEGIN COLLECTION
M  V30 MDLV30/STEABS ATOMS=(4 8 19 27 30)
M  V30 END COLLECTION
M  V30 END CTAB
M  END
>  <Molecule Name>
CHEMBL3334727

>  <smiles_curated>
CC(C)[C@@H](NC(=O)N[C@H]1CC[C@H](O)C1)C(=O)N1CC[C@](O)(c2ccc(Cl)cc2)C(C)(C)C1

>  <pchembl_value>
5.24

>  <target_organism>
Homo sapiens

>  <standard_type>
EC50

>  <target_pref_name>
Pregnane X receptor

>  <assay_description>
Transactivation of human full-length PXR transfected in human HepG2 cells after 24 hrs by luciferase reporter gene assay

>  <activity>
0

$$$$
CHEMBL3318978
Actelion Java MolfileCreator 2.0

  0  0  0  0  0  0              0 V3000
M  V30 BEGIN CTAB
M  V30 COUNTS 22 26 0 0 0
M  V30 BEGIN ATOM
M  V30 1 Cl 0.0 0.0 0.0 0
M  V30 2 C -0.8066 -1.2692 0.0 0
M  V30 3 C -0.1067 -2.5859 0.0 0
M  V30 4 C -2.3249 -1.2099 0.0 0
M  V30 5 C -0.9133 -3.8552 0.0 0
M  V30 6 C -3.1316 -2.4792 0.0 0
M  V30 7 C -2.4317 -3.7959 0.0 0
M  V30 8 C -3.2383 -5.0651 0.0 0
M  V30 9 C -2.1351 -6.0615 0.0 0
M  V30 10 C -4.6499 -4.4839 0.0 0
M  V30 11 C -4.4364 -5.9785 0.0 0
M  V30 12 N -2.3012 -7.5443 0.0 0
M  V30 13 N -0.6761 -5.7413 0.0 0
M  V30 14 N -0.9371 -8.1493 0.0 0
M  V30 15 C 0.0593 -7.0342 0.0 0
M  V30 16 C 0.0593 -4.4246 0.0 0
M  V30 17 C 1.5539 -7.0224 0.0 0
M  V30 18 C 1.5539 -4.4127 0.0 0
M  V30 19 C 2.2894 -5.7057 0.0 0
M  V30 20 C 2.2894 -8.3154 0.0 0
M  V30 21 C 3.5823 -9.0508 0.0 0
M  V30 22 C 2.2775 -9.81 0.0 0
M  V30 END ATOM
M  V30 BEGIN BOND
M  V30 1 1 1 2
M  V30 2 2 2 3
M  V30 3 1 2 4
M  V30 4 1 3 5
M  V30 5 2 4 6
M  V30 6 2 5 7
M  V30 7 1 7 8
M  V30 8 1 8 9
M  V30 9 1 8 10
M  V30 10 1 8 11
M  V30 11 2 9 12
M  V30 12 1 9 13
M  V30 13 1 12 14
M  V30 14 1 13 15
M  V30 15 1 13 16
M  V30 16 1 15 17
M  V30 17 2 16 18
M  V30 18 2 17 19
M  V30 19 1 17 20
M  V30 20 1 20 21
M  V30 21 1 20 22
M  V30 22 1 6 7
M  V30 23 1 10 11
M  V30 24 2 14 15
M  V30 25 1 18 19
M  V30 26 1 21 22
M  V30 END BOND
M  V30 END CTAB
M  END
>  <Molecule Name>
CHEMBL3318978

>  <smiles_curated>
Clc1ccc(C2(c3nnc4c(C5CC5)cccn34)CC2)cc1

>  <pchembl_value>
4.3

>  <target_organism>
Homo sapiens

>  <standard_type>
EC50

>  <target_pref_name>
Pregnane X receptor

>  <assay_description>
Activation of PXR (unknown origin)

>  <activity>
0

$$$$
CHEMBL79834
Actelion Java MolfileCreator 2.0

  0  0  0  0  0  0              0 V3000
M  V30 BEGIN CTAB
M  V30 COUNTS 28 31 0 0 0
M  V30 BEGIN ATOM
M  V30 1 F 0.0 0.0 0.0 0
M  V30 2 C 0.7481 -1.2944 0.0 0
M  V30 3 C 2.2444 -1.2825 0.0 0
M  V30 4 C -0.0118 -2.5888 0.0 0
M  V30 5 C 2.9926 -2.5769 0.0 0
M  V30 6 C 0.7362 -3.8833 0.0 0
M  V30 7 C 2.2326 -3.8714 0.0 0
M  V30 8 O 2.9807 -5.1658 0.0 0
M  V30 9 C 2.2207 -6.4603 0.0 0
M  V30 10 C 2.9688 -7.7547 0.0 0
M  V30 11 C 2.2088 -9.0491 0.0 0
M  V30 12 N 2.957 -10.3436 0.0 0
M  V30 13 C 4.4533 -10.3317 0.0 0
M  V30 14 C 2.1969 -11.638 0.0 0
M  V30 15 C 5.2014 -11.6261 0.0 0
M  V30 16 C 2.9451 -12.9324 0.0 0
M  V30 17 C 4.4414 -12.9206 0.0 0
M  V30 18 N 5.9259 -13.0631 0.0 0
M  V30 19 C 3.812 -14.2862 0.0 0
M  V30 20 C 6.9234 -11.9349 0.0 0
M  V30 21 C 6.2227 -14.5238 0.0 0
M  V30 22 O 2.3276 -14.5831 0.0 0
M  V30 23 N 4.9164 -15.2838 0.0 0
M  V30 24 C 8.3841 -12.2318 0.0 0
M  V30 25 C 6.4484 -10.4861 0.0 0
M  V30 26 C 9.3816 -11.1036 0.0 0
M  V30 27 C 7.4459 -9.3579 0.0 0
M  V30 28 C 8.9066 -9.6548 0.0 0
M  V30 END ATOM
M  V30 BEGIN BOND
M  V30 1 1 1 2
M  V30 2 2 2 3
M  V30 3 1 2 4
M  V30 4 1 3 5
M  V30 5 2 4 6
M  V30 6 2 5 7
M  V30 7 1 7 8
M  V30 8 1 8 9
M  V30 9 1 9 10
M  V30 10 1 10 11
M  V30 11 1 11 12
M  V30 12 1 12 13
M  V30 13 1 12 14
M  V30 14 1 13 15
M  V30 15 1 14 16
M  V30 16 1 15 17
M  V30 17 1 17 18
M  V30 18 1 17 19
M  V30 19 1 18 20
M  V30 20 1 18 21
M  V30 21 2 19 22
M  V30 22 1 19 23
M  V30 23 2 20 24
M  V30 24 1 20 25
M  V30 25 1 24 26
M  V30 26 2 25 27
M  V30 27 2 26 28
M  V30 28 1 6 7
M  V30 29 1 16 17
M  V30 30 1 21 23
M  V30 31 1 27 28
M  V30 END BOND
M  V30 END CTAB
M  END
>  <Molecule Name>
CHEMBL79834

>  <smiles_curated>
O=C1NCN(c2ccccc2)C12CCN(CCCOc1ccc(F)cc1)CC2

>  <pchembl_value>
4.5

>  <target_organism>
Homo sapiens

>  <standard_type>
EC50

>  <target_pref_name>
Pregnane X receptor

>  <assay_description>
Competitive binding affinity to human PXR LBD (111 to 434) by TR-FRET assay

>  <activity>
0

$$$$
CHEMBL13828
Actelion Java MolfileCreator 2.0

  0  0  0  0  0  0              0 V3000
M  V30 BEGIN CTAB
M  V30 COUNTS 32 36 0 0 0
M  V30 BEGIN ATOM
M  V30 1 O 0.0 0.0 0.0 0
M  V30 2 C -0.0117 1.503 0.0 0
M  V30 3 N -1.2329 2.3954 0.0 0
M  V30 4 N 1.1859 2.3954 0.0 0
M  V30 5 C -0.7867 3.828 0.0 0
M  V30 6 C -2.6655 1.9492 0.0 0
M  V30 7 C 0.7162 3.828 0.0 0
M  V30 8 C -1.55 5.1314 0.0 0
M  V30 9 C -3.781 2.959 0.0 0
M  V30 10 C 1.456 5.1314 0.0 0
M  V30 11 C -0.8102 6.4348 0.0 0
M  V30 12 C -5.2136 2.5128 0.0 0
M  V30 13 C 0.6928 6.4348 0.0 0
M  V30 14 N -6.3291 3.5227 0.0 0
M  V30 15 C -6.0356 4.9905 0.0 0
M  V30 16 C -7.7617 3.0765 0.0 0
M  V30 17 C -7.1511 6.0003 0.0 0
M  V30 18 C -8.8772 4.0863 0.0 0
M  V30 19 N -8.5837 5.5541 0.0 0
M  V30 20 C -9.6992 6.564 0.0 0
M  V30 21 C -9.4057 8.0318 0.0 0
M  V30 22 C -11.1318 6.1178 0.0 0
M  V30 23 C -7.9966 8.5015 0.0 0
M  V30 24 C -10.5212 9.0416 0.0 0
M  V30 25 C -12.2473 7.1276 0.0 0
M  V30 26 C -11.4488 4.6734 0.0 0
M  V30 27 C -7.703 9.9693 0.0 0
M  V30 28 C -10.2276 10.5094 0.0 0
M  V30 29 C -13.6799 6.6814 0.0 0
M  V30 30 C -12.8814 4.2272 0.0 0
M  V30 31 C -8.8185 10.9791 0.0 0
M  V30 32 C -13.997 5.2371 0.0 0
M  V30 END ATOM
M  V30 BEGIN BOND
M  V30 1 2 1 2
M  V30 2 1 2 3
M  V30 3 1 2 4
M  V30 4 1 3 5
M  V30 5 1 3 6
M  V30 6 1 4 7
M  V30 7 1 5 8
M  V30 8 1 6 9
M  V30 9 1 7 10
M  V30 10 2 8 11
M  V30 11 1 9 12
M  V30 12 2 10 13
M  V30 13 1 12 14
M  V30 14 1 14 15
M  V30 15 1 14 16
M  V30 16 1 15 17
M  V30 17 1 16 18
M  V30 18 1 17 19
M  V30 19 1 19 20
M  V30 20 1 20 21
M  V30 21 1 20 22
M  V30 22 2 21 23
M  V30 23 1 21 24
M  V30 24 2 22 25
M  V30 25 1 22 26
M  V30 26 1 23 27
M  V30 27 2 24 28
M  V30 28 1 25 29
M  V30 29 2 26 30
M  V30 30 2 27 31
M  V30 31 2 29 32
M  V30 32 2 5 7
M  V30 33 1 11 13
M  V30 34 1 18 19
M  V30 35 1 28 31
M  V30 36 1 30 32
M  V30 END BOND
M  V30 END CTAB
M  END
>  <Molecule Name>
CHEMBL13828

>  <smiles_curated>
O=c1[nH]c2ccccc2n1CCCN1CCN(C(c2ccccc2)c2ccccc2)CC1

>  <pchembl_value>
5.3

>  <target_organism>
Homo sapiens

>  <standard_type>
EC50

>  <target_pref_name>
Pregnane X receptor

>  <assay_description>
Activation of PXR in human cryopreserved hepatocytes assessed as induction of CYP3A4,Activation of human PXR expressed in human HepG2 (DPX-2) cells after 24 hrs by luciferase reporter gene based luminescent analysis,Activation of human PXR expressed in human HepG2 (DPX-2) cells assessed as induction of CYP3A4 after 24 hrs by luminescent analysis,Competitive binding affinity to human PXR LBD (111 to 434) by TR-FRET assay

>  <activity>
0

$$$$
CHEMBL3094369
Actelion Java MolfileCreator 2.0

  0  0  0  0  0  0              0 V3000
M  V30 BEGIN CTAB
M  V30 COUNTS 32 33 0 0 0
M  V30 BEGIN ATOM
M  V30 1 S 0.0 0.0 0.0 0
M  V30 2 O -1.3439 -0.7627 0.0 0
M  V30 3 O 1.3197 0.7748 0.0 0
M  V30 4 N 0.7627 -1.3197 0.0 0
M  V30 5 C -0.7748 1.3439 0.0 0
M  V30 6 C -0.0121 -2.6394 0.0 0
M  V30 7 C 2.2883 -1.3076 0.0 0
M  V30 8 C -0.0121 2.6878 0.0 0
M  V30 9 C -2.3246 1.356 0.0 0
M  V30 10 C -1.5618 -2.6273 0.0 0
M  V30 11 C 0.7506 -3.9591 0.0 0
M  V30 12 C 3.051 -2.6273 0.0 0
M  V30 13 C -0.7869 4.0317 0.0 0
M  V30 14 C -3.0995 2.6999 0.0 0
M  V30 15 C -2.3367 -3.947 0.0 0
M  V30 16 C -0.0242 -5.2788 0.0 0
M  V30 17 F 3.8138 -3.947 0.0 0
M  V30 18 F 4.3707 -1.8524 0.0 0
M  V30 19 F 1.7071 -3.39 0.0 0
M  V30 20 C -2.3367 4.0438 0.0 0
M  V30 21 C -1.5739 -5.2667 0.0 0
M  V30 22 F -3.1116 5.3878 0.0 0
M  V30 23 C -2.3488 -6.5864 0.0 0
M  V30 24 O -1.0291 -7.3492 0.0 0
M  V30 25 C -3.1237 -7.9061 0.0 0
M  V30 26 C -3.6927 -5.8115 0.0 0
M  V30 27 F -3.8986 -9.2258 0.0 0
M  V30 28 F -1.804 -8.6689 0.0 0
M  V30 29 F -3.9712 -7.5429 0.0 0
M  V30 30 F -5.0367 -5.0367 0.0 0
M  V30 31 F -4.2497 -6.5259 0.0 0
M  V30 32 F -3.2811 -4.3223 0.0 0
M  V30 END ATOM
M  V30 BEGIN BOND
M  V30 1 2 1 2
M  V30 2 2 1 3
M  V30 3 1 1 4
M  V30 4 1 1 5
M  V30 5 1 4 6
M  V30 6 1 4 7
M  V30 7 2 5 8
M  V30 8 1 5 9
M  V30 9 2 6 10
M  V30 10 1 6 11
M  V30 11 1 7 12
M  V30 12 1 8 13
M  V30 13 2 9 14
M  V30 14 1 10 15
M  V30 15 2 11 16
M  V30 16 1 12 17
M  V30 17 1 12 18
M  V30 18 1 12 19
M  V30 19 2 13 20
M  V30 20 2 15 21
M  V30 21 1 20 22
M  V30 22 1 21 23
M  V30 23 1 23 24
M  V30 24 1 23 25
M  V30 25 1 23 26
M  V30 26 1 25 27
M  V30 27 1 25 28
M  V30 28 1 25 29
M  V30 29 1 26 30
M  V30 30 1 26 31
M  V30 31 1 26 32
M  V30 32 1 14 20
M  V30 33 1 16 21
M  V30 END BOND
M  V30 END CTAB
M  END
>  <Molecule Name>
CHEMBL3094369

>  <smiles_curated>
O=S(=O)(c1ccc(F)cc1)N(CC(F)(F)F)c1ccc(C(O)(C(F)(F)F)C(F)(F)F)cc1

>  <pchembl_value>
6.72

>  <target_organism>
Homo sapiens

>  <standard_type>
EC50

>  <target_pref_name>
Pregnane X receptor

>  <assay_description>
Agonist activity at GAL4-fused human PXR expressed in HEK293T cells assessed as activation of basal transcriptional activity after 20 hrs by dual-glo luciferase reporter gene assay,Agonist activity at PXR (unknown origin) expressed in HEK293 cells assessed as transcriptional activity by GAL4 NR reporter cell-based assay

>  <activity>
1

$$$$
CHEMBL372357
Actelion Java MolfileCreator 2.0

  0  0  0  0  0  0              0 V3000
M  V30 BEGIN CTAB
M  V30 COUNTS 30 34 0 0 0
M  V30 BEGIN ATOM
M  V30 1 S 0.0 0.0 0.0 0
M  V30 2 O 1.1301 0.977 0.0 0
M  V30 3 O 1.1301 -0.9535 0.0 0
M  V30 4 N -0.7534 1.3066 0.0 0
M  V30 5 C -0.7534 -1.2831 0.0 0
M  V30 6 C -2.2602 1.3184 0.0 0
M  V30 7 C -2.2602 -1.2713 0.0 0
M  V30 8 C -0.0117 -2.5663 0.0 0
M  V30 9 N -3.0136 0.0353 0.0 0
M  V30 10 C -3.0136 2.6251 0.0 0
M  V30 11 C -3.0136 -2.5545 0.0 0
M  V30 12 C -0.7651 -3.8494 0.0 0
M  V30 13 C -4.5204 2.6369 0.0 0
M  V30 14 C -2.272 3.9318 0.0 0
M  V30 15 C -2.272 -3.8376 0.0 0
M  V30 16 O -5.2738 1.3537 0.0 0
M  V30 17 N -5.2738 3.9436 0.0 0
M  V30 18 O -0.7887 3.9436 0.0 0
M  V30 19 C -3.0254 5.2385 0.0 0
M  V30 20 C -4.5322 5.2503 0.0 0
M  V30 21 C -6.7807 3.9554 0.0 0
M  V30 22 C -2.2837 6.5452 0.0 0
M  V30 23 C -5.2856 6.557 0.0 0
M  V30 24 C -7.5341 5.2621 0.0 0
M  V30 25 C -3.0371 7.8519 0.0 0
M  V30 26 C -4.544 7.8637 0.0 0
M  V30 27 C -9.0409 5.2738 0.0 0
M  V30 28 F -2.2955 9.1586 0.0 0
M  V30 29 C -10.3476 4.5322 0.0 0
M  V30 30 C -10.3476 6.0272 0.0 0
M  V30 END ATOM
M  V30 BEGIN BOND
M  V30 1 2 1 2
M  V30 2 2 1 3
M  V30 3 1 1 4
M  V30 4 1 1 5
M  V30 5 1 4 6
M  V30 6 2 5 7
M  V30 7 1 5 8
M  V30 8 2 6 9
M  V30 9 1 6 10
M  V30 10 1 7 11
M  V30 11 2 8 12
M  V30 12 1 10 13
M  V30 13 2 10 14
M  V30 14 2 11 15
M  V30 15 2 13 16
M  V30 16 1 13 17
M  V30 17 1 14 18
M  V30 18 1 14 19
M  V30 19 1 17 20
M  V30 20 1 17 21
M  V30 21 1 19 22
M  V30 22 1 20 23
M  V30 23 1 21 24
M  V30 24 2 22 25
M  V30 25 2 23 26
M  V30 26 1 24 27
M  V30 27 1 25 28
M  V30 28 1 27 29
M  V30 29 1 27 30
M  V30 30 1 7 9
M  V30 31 1 12 15
M  V30 32 2 19 20
M  V30 33 1 25 26
M  V30 34 1 29 30
M  V30 END BOND
M  V30 END CTAB
M  END
>  <Molecule Name>
CHEMBL372357

>  <smiles_curated>
O=c1c(C2=Nc3ccccc3S(=O)(=O)N2)c(O)c2cc(F)ccc2n1CCC1CC1

>  <pchembl_value>
5.28

>  <target_organism>
Homo sapiens

>  <standard_type>
EC50

>  <target_pref_name>
Pregnane X receptor

>  <assay_description>
Effect on PXR activity

>  <activity>
0

$$$$
CHEMBL3318963
Actelion Java MolfileCreator 2.0

  0  0  0  0  0  0              0 V3000
M  V30 BEGIN CTAB
M  V30 COUNTS 27 31 0 0 0
M  V30 BEGIN ATOM
M  V30 1 Cl 0.0 0.0 0.0 0
M  V30 2 C -0.7534 -1.2832 0.0 0
M  V30 3 C -2.2603 -1.2714 0.0 0
M  V30 4 C -0.0117 -2.5664 0.0 0
M  V30 5 C -3.0138 -2.5547 0.0 0
M  V30 6 C -0.7652 -3.8497 0.0 0
M  V30 7 O -4.5207 -2.5429 0.0 0
M  V30 8 C -2.2721 -3.8379 0.0 0
M  V30 9 C -5.2742 -1.2361 0.0 0
M  V30 10 C -6.7811 -1.2243 0.0 0
M  V30 11 C -4.5325 0.0706 0.0 0
M  V30 12 N -7.7936 -2.3192 0.0 0
M  V30 13 N -7.5346 0.0824 0.0 0
M  V30 14 C -5.286 1.3774 0.0 0
M  V30 15 N -9.171 -1.6952 0.0 0
M  V30 16 C -9.0062 -0.2119 0.0 0
M  V30 17 C -6.7929 1.3892 0.0 0
M  V30 18 C -10.1247 0.8005 0.0 0
M  V30 19 C -9.3476 2.0838 0.0 0
M  V30 20 C -11.5256 1.3774 0.0 0
M  V30 21 C -11.3137 -0.1059 0.0 0
M  V30 22 C -7.8643 2.0484 0.0 0
M  V30 23 C -10.0658 3.4141 0.0 0
M  V30 24 C -7.0872 3.3317 0.0 0
M  V30 25 C -9.2888 4.6973 0.0 0
M  V30 26 C -7.8054 4.662 0.0 0
M  V30 27 Cl -7.0284 5.9453 0.0 0
M  V30 END ATOM
M  V30 BEGIN BOND
M  V30 1 1 1 2
M  V30 2 2 2 3
M  V30 3 1 2 4
M  V30 4 1 3 5
M  V30 5 2 4 6
M  V30 6 1 5 7
M  V30 7 2 5 8
M  V30 8 1 7 9
M  V30 9 1 9 10
M  V30 10 2 9 11
M  V30 11 2 10 12
M  V30 12 1 10 13
M  V30 13 1 11 14
M  V30 14 1 12 15
M  V30 15 1 13 16
M  V30 16 1 13 17
M  V30 17 1 16 18
M  V30 18 1 18 19
M  V30 19 1 18 20
M  V30 20 1 18 21
M  V30 21 2 19 22
M  V30 22 1 19 23
M  V30 23 1 22 24
M  V30 24 2 23 25
M  V30 25 2 24 26
M  V30 26 1 26 27
M  V30 27 1 6 8
M  V30 28 2 14 17
M  V30 29 2 15 16
M  V30 30 1 20 21
M  V30 31 1 25 26
M  V30 END BOND
M  V30 END CTAB
M  END
>  <Molecule Name>
CHEMBL3318963

>  <smiles_curated>
Clc1ccc(C2(c3nnc4c(Oc5cccc(Cl)c5)cccn34)CC2)cc1

>  <pchembl_value>
6.1

>  <target_organism>
Homo sapiens

>  <standard_type>
EC50

>  <target_pref_name>
Pregnane X receptor

>  <assay_description>
Activation of PXR (unknown origin)

>  <activity>
1

$$$$
CHEMBL3827928
Actelion Java MolfileCreator 2.0

  0  0  0  0  0  0              0 V3000
M  V30 BEGIN CTAB
M  V30 COUNTS 25 27 0 0 0
M  V30 BEGIN ATOM
M  V30 1 F 0.0 0.0 0.0 0
M  V30 2 C 0.7334 1.313 0.0 0
M  V30 3 F 1.5141 0.0473 0.0 0
M  V30 4 C 1.4668 2.6261 0.0 0
M  V30 5 C -0.5796 2.0701 0.0 0
M  V30 6 C 0.1537 3.3832 0.0 0
M  V30 7 C 1.4431 2.6498 0.0 0
M  V30 8 C 0.8872 4.6963 0.0 0 CFG=2
M  V30 9 C 1.4313 1.1592 0.0 0
M  V30 10 C 2.7326 3.4068 0.0 0
M  V30 11 O 2.3777 4.7081 0.0 0
M  V30 12 C 0.1301 6.0093 0.0 0
M  V30 13 C 2.7207 0.4258 0.0 0
M  V30 14 C 4.022 2.6734 0.0 0
M  V30 15 N -1.384 6.0212 0.0 0
M  V30 16 C 0.8635 7.3224 0.0 0
M  V30 17 C 4.0101 1.1829 0.0 0
M  V30 18 C -2.1411 7.3342 0.0 0
M  V30 19 C 0.1064 8.6355 0.0 0
M  V30 20 O 5.2996 0.4495 0.0 0
M  V30 21 C -1.4077 8.6473 0.0 0
M  V30 22 C 5.2877 -1.0409 0.0 0
M  V30 23 F 5.2759 -2.5315 0.0 0
M  V30 24 F 6.7783 -1.0291 0.0 0
M  V30 25 F 3.7736 -1.0291 0.0 0
M  V30 END ATOM
M  V30 BEGIN BOND
M  V30 1 1 1 2
M  V30 2 1 2 3
M  V30 3 1 2 4
M  V30 4 1 2 5
M  V30 5 1 4 6
M  V30 6 1 6 7
M  V30 7 1 6 8
M  V30 8 2 7 9
M  V30 9 1 7 10
M  V30 10 1 8 11 CFG=1
M  V30 11 1 8 12
M  V30 12 1 9 13
M  V30 13 2 10 14
M  V30 14 2 12 15
M  V30 15 1 12 16
M  V30 16 2 13 17
M  V30 17 1 15 18
M  V30 18 2 16 19
M  V30 19 1 17 20
M  V30 20 2 18 21
M  V30 21 1 20 22
M  V30 22 1 22 23
M  V30 23 1 22 24
M  V30 24 1 22 25
M  V30 25 1 5 6
M  V30 26 1 14 17
M  V30 27 1 19 21
M  V30 END BOND
M  V30 BEGIN COLLECTION
M  V30 MDLV30/STEABS ATOMS=(1 8)
M  V30 END COLLECTION
M  V30 END CTAB
M  END
>  <Molecule Name>
CHEMBL3827928

>  <smiles_curated>
O[C@H](c1ccccn1)C1(c2ccc(OC(F)(F)F)cc2)CC(F)(F)C1

>  <pchembl_value>
5.24

>  <target_organism>
Homo sapiens

>  <standard_type>
EC50

>  <target_pref_name>
Pregnane X receptor

>  <assay_description>
Activation of human PXR

>  <activity>
0

$$$$
CHEMBL457278
Actelion Java MolfileCreator 2.0

  0  0  0  0  0  0              0 V3000
M  V30 BEGIN CTAB
M  V30 COUNTS 29 32 0 0 0
M  V30 BEGIN ATOM
M  V30 1 S 0.0 0.0 0.0 0
M  V30 2 O -1.3065 0.7533 0.0 0
M  V30 3 O 1.2829 -0.7415 0.0 0
M  V30 4 N 0.7415 1.3065 0.0 0
M  V30 5 C -0.7533 -1.2829 0.0 0
M  V30 6 C -0.0117 2.613 0.0 0
M  V30 7 C -2.2599 -1.2712 0.0 0
M  V30 8 C -0.0117 -2.5659 0.0 0
M  V30 9 C -1.5184 2.6248 0.0 0
M  V30 10 C 0.7297 3.9196 0.0 0
M  V30 11 C -3.0132 -2.5542 0.0 0
M  V30 12 C -0.765 -3.8489 0.0 0
M  V30 13 C -2.2717 3.9313 0.0 0
M  V30 14 C -0.0235 5.2261 0.0 0
M  V30 15 C -2.2717 -3.8372 0.0 0
M  V30 16 N -3.743 4.2491 0.0 0
M  V30 17 C -1.5301 5.2379 0.0 0
M  V30 18 N -3.025 -5.1202 0.0 0 CHG=1
M  V30 19 C -3.9078 5.744 0.0 0
M  V30 20 N -2.5424 6.3561 0.0 0
M  V30 21 O -2.2834 -6.4032 0.0 0
M  V30 22 O -4.5316 -5.1084 0.0 0 CHG=-1
M  V30 23 C -2.2481 7.8274 0.0 0
M  V30 24 C -3.3663 8.8397 0.0 0
M  V30 25 C -3.0721 10.311 0.0 0
M  V30 26 C -4.8024 8.3924 0.0 0
M  V30 27 C -4.1903 11.3233 0.0 0
M  V30 28 C -5.9206 9.4047 0.0 0
M  V30 29 C -5.6263 10.876 0.0 0
M  V30 END ATOM
M  V30 BEGIN BOND
M  V30 1 2 1 2
M  V30 2 2 1 3
M  V30 3 1 1 4
M  V30 4 1 1 5
M  V30 5 1 4 6
M  V30 6 2 5 7
M  V30 7 1 5 8
M  V30 8 2 6 9
M  V30 9 1 6 10
M  V30 10 1 7 11
M  V30 11 2 8 12
M  V30 12 1 9 13
M  V30 13 2 10 14
M  V30 14 2 11 15
M  V30 15 1 13 16
M  V30 16 2 13 17
M  V30 17 1 15 18
M  V30 18 2 16 19
M  V30 19 1 17 20
M  V30 20 2 18 21
M  V30 21 1 18 22
M  V30 22 1 20 23
M  V30 23 1 23 24
M  V30 24 2 24 25
M  V30 25 1 24 26
M  V30 26 1 25 27
M  V30 27 2 26 28
M  V30 28 2 27 29
M  V30 29 1 12 15
M  V30 30 1 14 17
M  V30 31 1 19 20
M  V30 32 1 28 29
M  V30 END BOND
M  V30 END CTAB
M  END
>  <Molecule Name>
CHEMBL457278

>  <smiles_curated>
O=[N+]([O-])c1ccc(S(=O)(=O)Nc2ccc3c(c2)ncn3Cc2ccccc2)cc1

>  <pchembl_value>
6.47

>  <target_organism>
Homo sapiens

>  <standard_type>
EC50

>  <target_pref_name>
Pregnane X receptor

>  <assay_description>
Agonist activity at human pregnane X receptor expressed in HGPXR reporter cells

>  <activity>
1

$$$$
CHEMBL4444000
Actelion Java MolfileCreator 2.0

  0  0  0  0  0  0              0 V3000
M  V30 BEGIN CTAB
M  V30 COUNTS 31 34 0 0 0
M  V30 BEGIN ATOM
M  V30 1 Cl 0.0 0.0 0.0 0
M  V30 2 C -0.755 -1.2859 0.0 0
M  V30 3 C -2.2652 -1.2741 0.0 0
M  V30 4 C -0.0117 -2.5719 0.0 0
M  V30 5 N -3.0202 0.0353 0.0 0
M  V30 6 C -3.0202 -2.5601 0.0 0
M  V30 7 C -0.7668 -3.8579 0.0 0
M  V30 8 C -2.277 1.3449 0.0 0
M  V30 9 C -2.277 -3.8461 0.0 0
M  V30 10 S -0.0235 -5.1439 0.0 0
M  V30 11 C -3.032 2.6545 0.0 0
M  V30 12 F -3.032 -5.1321 0.0 0
M  V30 13 O 1.2623 -4.3888 0.0 0
M  V30 14 O -1.3331 -5.8871 0.0 0
M  V30 15 N 0.7196 -6.4298 0.0 0
M  V30 16 C -2.2888 3.9641 0.0 0
M  V30 17 C -4.5422 2.6663 0.0 0
M  V30 18 C -0.0353 -7.7158 0.0 0
M  V30 19 F -0.8022 3.9759 0.0 0
M  V30 20 C -3.0438 5.2736 0.0 0
M  V30 21 C -5.2972 3.9759 0.0 0
M  V30 22 C -5.2972 1.3803 0.0 0
M  V30 23 N -1.5337 -7.8574 0.0 0
M  V30 24 C 0.5663 -9.0726 0.0 0
M  V30 25 C -4.554 5.2854 0.0 0
M  V30 26 N -6.8074 1.3921 0.0 0
M  V30 27 C -1.8522 -9.3085 0.0 0
M  V30 28 S -0.5545 -10.0636 0.0 0
M  V30 29 C -7.881 2.4657 0.0 0
M  V30 30 C -7.881 0.3421 0.0 0
M  V30 31 C -8.9546 1.4157 0.0 0
M  V30 END ATOM
M  V30 BEGIN BOND
M  V30 1 1 1 2
M  V30 2 2 2 3
M  V30 3 1 2 4
M  V30 4 1 3 5
M  V30 5 1 3 6
M  V30 6 2 4 7
M  V30 7 1 5 8
M  V30 8 2 6 9
M  V30 9 1 7 10
M  V30 10 1 8 11
M  V30 11 1 9 12
M  V30 12 2 10 13
M  V30 13 2 10 14
M  V30 14 1 10 15
M  V30 15 2 11 16
M  V30 16 1 11 17
M  V30 17 1 15 18
M  V30 18 1 16 19
M  V30 19 1 16 20
M  V30 20 2 17 21
M  V30 21 1 17 22
M  V30 22 1 18 23
M  V30 23 2 18 24
M  V30 24 2 20 25
M  V30 25 1 22 26
M  V30 26 2 23 27
M  V30 27 1 24 28
M  V30 28 1 26 29
M  V30 29 1 26 30
M  V30 30 1 29 31
M  V30 31 1 7 9
M  V30 32 1 21 25
M  V30 33 1 27 28
M  V30 34 1 30 31
M  V30 END BOND
M  V30 END CTAB
M  END
>  <Molecule Name>
CHEMBL4444000

>  <smiles_curated>
O=S(=O)(Nc1cscn1)c1cc(Cl)c(NCc2c(F)cccc2CN2CCC2)cc1F

>  <pchembl_value>
5.51

>  <target_organism>
Homo sapiens

>  <standard_type>
EC50

>  <target_pref_name>
Pregnane X receptor

>  <assay_description>
Agonist activity at PXR in human DPX2 cells after 24 hrs by luciferase reporter gene assay

>  <activity>
0

$$$$
CHEMBL465058
Actelion Java MolfileCreator 2.0

  0  0  0  0  0  0              0 V3000
M  V30 BEGIN CTAB
M  V30 COUNTS 26 28 0 0 0
M  V30 BEGIN ATOM
M  V30 1 Cl 0.0 0.0 0.0 0
M  V30 2 C 0.7346 -1.2914 0.0 0
M  V30 3 C -0.0236 -2.5829 0.0 0
M  V30 4 C 2.2275 -1.2796 0.0 0
M  V30 5 S -1.5402 -2.5711 0.0 0
M  V30 6 C 0.7109 -3.8744 0.0 0
M  V30 7 C 2.9621 -2.5711 0.0 0
M  V30 8 O -1.5521 -4.064 0.0 0
M  V30 9 O -1.5521 -1.0545 0.0 0
M  V30 10 N -3.0568 -2.5592 0.0 0
M  V30 11 C 2.2038 -3.8625 0.0 0
M  V30 12 C -3.8152 -3.8507 0.0 0
M  V30 13 C -3.0805 -5.1422 0.0 0
M  V30 14 C -5.3318 -3.8388 0.0 0
M  V30 15 C -3.8388 -6.4337 0.0 0
M  V30 16 C -6.0901 -5.1303 0.0 0
M  V30 17 N -3.3886 -7.8555 0.0 0
M  V30 18 C -5.3554 -6.4218 0.0 0
M  V30 19 C -4.6208 -8.7323 0.0 0
M  V30 20 N -5.8294 -7.8436 0.0 0
M  V30 21 C -7.2749 -8.2939 0.0 0
M  V30 22 C -7.5948 -9.7512 0.0 0
M  V30 23 C -9.0403 -10.2015 0.0 0
M  V30 24 C -9.3602 -11.6588 0.0 0
M  V30 25 C -10.8057 -12.1091 0.0 0
M  V30 26 C -11.1256 -13.5664 0.0 0
M  V30 END ATOM
M  V30 BEGIN BOND
M  V30 1 1 1 2
M  V30 2 2 2 3
M  V30 3 1 2 4
M  V30 4 1 3 5
M  V30 5 1 3 6
M  V30 6 2 4 7
M  V30 7 2 5 8
M  V30 8 2 5 9
M  V30 9 1 5 10
M  V30 10 2 6 11
M  V30 11 1 10 12
M  V30 12 2 12 13
M  V30 13 1 12 14
M  V30 14 1 13 15
M  V30 15 2 14 16
M  V30 16 1 15 17
M  V30 17 2 15 18
M  V30 18 2 17 19
M  V30 19 1 18 20
M  V30 20 1 20 21
M  V30 21 1 21 22
M  V30 22 1 22 23
M  V30 23 1 23 24
M  V30 24 1 24 25
M  V30 25 1 25 26
M  V30 26 1 7 11
M  V30 27 1 16 18
M  V30 28 1 19 20
M  V30 END BOND
M  V30 END CTAB
M  END
>  <Molecule Name>
CHEMBL465058

>  <smiles_curated>
CCCCCCn1cnc2cc(NS(=O)(=O)c3ccccc3Cl)ccc21

>  <pchembl_value>
7.26

>  <target_organism>
Homo sapiens

>  <standard_type>
EC50

>  <target_pref_name>
Pregnane X receptor

>  <assay_description>
Agonist activity at human pregnane X receptor expressed in HGPXR reporter cells

>  <activity>
1

$$$$
CHEMBL4544968
Actelion Java MolfileCreator 2.0

  0  0  0  0  0  0              0 V3000
M  V30 BEGIN CTAB
M  V30 COUNTS 28 30 0 0 0
M  V30 BEGIN ATOM
M  V30 1 Cl 0.0 0.0 0.0 0
M  V30 2 C 0.7441 1.3111 0.0 0
M  V30 3 C 2.2325 1.3229 0.0 0
M  V30 4 C -0.0118 2.6223 0.0 0
M  V30 5 N 2.9767 0.0354 0.0 0
M  V30 6 C 2.9767 2.6341 0.0 0
M  V30 7 C 0.7323 3.9335 0.0 0
M  V30 8 C 2.2207 -1.2521 0.0 0 CFG=2
M  V30 9 C 2.2207 3.9453 0.0 0
M  V30 10 S -0.0236 5.2447 0.0 0
M  V30 11 C 2.9649 -2.5396 0.0 0
M  V30 12 C 0.7087 -1.2403 0.0 0
M  V30 13 F 2.9649 5.2565 0.0 0
M  V30 14 O -1.3348 4.5005 0.0 0
M  V30 15 O 1.2639 6.0007 0.0 0
M  V30 16 N -0.7796 6.5558 0.0 0
M  V30 17 C 2.2089 -3.8272 0.0 0
M  V30 18 C 4.4532 -2.5278 0.0 0
M  V30 19 O -0.0472 -2.5278 0.0 0
M  V30 20 C -0.0354 7.867 0.0 0
M  V30 21 C 2.9531 -5.1147 0.0 0
M  V30 22 C 5.1974 -3.8154 0.0 0
M  V30 23 C -1.5592 -2.516 0.0 0
M  V30 24 S 1.4411 8.0324 0.0 0
M  V30 25 N -0.6614 9.2491 0.0 0
M  V30 26 C 4.4414 -5.1029 0.0 0
M  V30 27 C 1.7364 9.5089 0.0 0
M  V30 28 C 0.437 10.2649 0.0 0
M  V30 END ATOM
M  V30 BEGIN BOND
M  V30 1 1 1 2
M  V30 2 2 2 3
M  V30 3 1 2 4
M  V30 4 1 3 5
M  V30 5 1 3 6
M  V30 6 2 4 7
M  V30 7 1 8 5 CFG=3
M  V30 8 2 6 9
M  V30 9 1 7 10
M  V30 10 1 8 11
M  V30 11 1 8 12
M  V30 12 1 9 13
M  V30 13 2 10 14
M  V30 14 2 10 15
M  V30 15 1 10 16
M  V30 16 2 11 17
M  V30 17 1 11 18
M  V30 18 1 12 19
M  V30 19 1 16 20
M  V30 20 1 17 21
M  V30 21 2 18 22
M  V30 22 1 19 23
M  V30 23 1 20 24
M  V30 24 2 20 25
M  V30 25 2 21 26
M  V30 26 1 24 27
M  V30 27 1 25 28
M  V30 28 1 7 9
M  V30 29 1 22 26
M  V30 30 2 27 28
M  V30 END BOND
M  V30 BEGIN COLLECTION
M  V30 MDLV30/STEABS ATOMS=(1 8)
M  V30 END COLLECTION
M  V30 END CTAB
M  END
>  <Molecule Name>
CHEMBL4544968

>  <smiles_curated>
COC[C@H](Nc1cc(F)c(S(=O)(=O)Nc2nccs2)cc1Cl)c1ccccc1

>  <pchembl_value>
6.38

>  <target_organism>
Homo sapiens

>  <standard_type>
EC50

>  <target_pref_name>
Pregnane X receptor

>  <assay_description>
Agonist activity at PXR in human DPX2 cells after 24 hrs by luciferase reporter gene assay

>  <activity>
1

$$$$
CHEMBL40883
Actelion Java MolfileCreator 2.0

  0  0  0  0  0  0              0 V3000
M  V30 BEGIN CTAB
M  V30 COUNTS 20 22 0 0 0
M  V30 BEGIN ATOM
M  V30 1 O 0.0 0.0 0.0 0
M  V30 2 C -1.4151 -0.6116 0.0 0
M  V30 3 O -1.583 -2.1226 0.0 0
M  V30 4 C -2.6623 0.2998 0.0 0
M  V30 5 C -0.3597 -3.01 0.0 0
M  V30 6 C -4.0774 -0.3118 0.0 0
M  V30 7 C -2.5184 1.8348 0.0 0
M  V30 8 C 1.0313 -2.3745 0.0 0
M  V30 9 C -0.5276 -4.5211 0.0 0
M  V30 10 C -5.3246 0.5996 0.0 0
M  V30 11 C -3.7656 2.7462 0.0 0
M  V30 12 C 2.2545 -3.2619 0.0 0
M  V30 13 C 0.8034 -5.2646 0.0 0
M  V30 14 C -5.1807 2.1346 0.0 0
M  V30 15 C -6.7397 -0.0119 0.0 0
M  V30 16 C -3.6217 4.2812 0.0 0
M  V30 17 N 0.7915 -3.7176 0.0 0
M  V30 18 C 3.142 -4.4851 0.0 0
M  V30 19 C 2.2425 -5.7203 0.0 0
M  V30 20 C 0.0239 -3.4058 0.0 0
M  V30 END ATOM
M  V30 BEGIN BOND
M  V30 1 2 1 2
M  V30 2 1 2 3
M  V30 3 1 2 4
M  V30 4 1 3 5
M  V30 5 2 4 6
M  V30 6 1 4 7
M  V30 7 1 5 8
M  V30 8 1 5 9
M  V30 9 1 6 10
M  V30 10 2 7 11
M  V30 11 1 8 12
M  V30 12 1 9 13
M  V30 13 2 10 14
M  V30 14 1 10 15
M  V30 15 1 11 16
M  V30 16 1 12 17
M  V30 17 1 12 18
M  V30 18 1 13 19
M  V30 19 1 17 20
M  V30 20 1 11 14
M  V30 21 1 13 17
M  V30 22 1 18 19
M  V30 END BOND
M  V30 END CTAB
M  END
>  <Molecule Name>
CHEMBL40883

>  <smiles_curated>
Cc1cc(C)cc(C(=O)OC2CC3CCC(C2)N3C)c1

>  <pchembl_value>
4.85

>  <target_organism>
Homo sapiens

>  <standard_type>
EC50

>  <target_pref_name>
Pregnane X receptor

>  <assay_description>
Activation of human PXR expressed in human HepG2 (DPX-2) cells after 24 hrs by luciferase reporter gene based luminescent analysis,Activation of human PXR expressed in human HepG2 (DPX-2) cells assessed as induction of CYP3A4 after 24 hrs by luminescent analysis,Competitive binding affinity to human PXR LBD (111 to 434) by TR-FRET assay

>  <activity>
0

$$$$
CHEMBL304818
Actelion Java MolfileCreator 2.0

  0  0  0  0  0  0              0 V3000
M  V30 BEGIN CTAB
M  V30 COUNTS 24 24 0 0 0
M  V30 BEGIN ATOM
M  V30 1 O 0.0 0.0 0.0 0
M  V30 2 C 0.7428 1.3087 0.0 0
M  V30 3 C -0.0117 2.6175 0.0 0
M  V30 4 C 2.2284 1.3205 0.0 0
M  V30 5 C 0.731 3.9263 0.0 0
M  V30 6 C -1.521 2.6293 0.0 0
M  V30 7 C 2.9712 2.6293 0.0 0
M  V30 8 C 2.9712 0.0353 0.0 0
M  V30 9 C 2.2166 3.938 0.0 0
M  V30 10 C -0.0235 5.235 0.0 0
M  V30 11 C -2.2756 1.3441 0.0 0
M  V30 12 C 4.4568 2.6411 0.0 0
M  V30 13 O 2.9594 5.2468 0.0 0
M  V30 14 C -3.7848 1.3559 0.0 0
M  V30 15 C -4.5394 0.0707 0.0 0
M  V30 16 C -6.0486 0.0825 0.0 0
M  V30 17 C -7.5578 0.0943 0.0 0
M  V30 18 C -9.067 0.1061 0.0 0
M  V30 19 C -9.8216 -1.179 0.0 0
M  V30 20 C -11.3308 -1.1672 0.0 0
M  V30 21 C -12.0854 -2.4524 0.0 0
M  V30 22 C -12.84 -3.7376 0.0 0
M  V30 23 C -13.5946 -5.0228 0.0 0
M  V30 24 O -15.1038 -5.011 0.0 0
M  V30 END ATOM
M  V30 BEGIN BOND
M  V30 1 2 1 2
M  V30 2 1 2 3
M  V30 3 1 2 4
M  V30 4 2 3 5
M  V30 5 1 3 6
M  V30 6 2 4 7
M  V30 7 1 4 8
M  V30 8 1 5 9
M  V30 9 1 5 10
M  V30 10 1 6 11
M  V30 11 1 7 12
M  V30 12 2 9 13
M  V30 13 1 11 14
M  V30 14 1 14 15
M  V30 15 1 15 16
M  V30 16 3 16 17
M  V30 17 1 17 18
M  V30 18 1 18 19
M  V30 19 1 19 20
M  V30 20 1 20 21
M  V30 21 3 21 22
M  V30 22 1 22 23
M  V30 23 1 23 24
M  V30 24 1 7 9
M  V30 END BOND
M  V30 END CTAB
M  END
>  <Molecule Name>
CHEMBL304818

>  <smiles_curated>
CC1=C(C)C(=O)C(CCCCC#CCCCC#CCO)=C(C)C1=O

>  <pchembl_value>
4.9

>  <target_organism>
Homo sapiens

>  <standard_type>
EC50

>  <target_pref_name>
Pregnane X receptor

>  <assay_description>
Activation of human PXR expressed in human HepG2 (DPX-2) cells after 24 hrs by luciferase reporter gene based luminescent analysis,Activation of human PXR expressed in human HepG2 (DPX-2) cells assessed as induction of CYP3A4 after 24 hrs by luminescent analysis,Competitive binding affinity to human PXR LBD (111 to 434) by TR-FRET assay

>  <activity>
0

$$$$
CHEMBL4463788
Actelion Java MolfileCreator 2.0

  0  0  0  0  0  0              0 V3000
M  V30 BEGIN CTAB
M  V30 COUNTS 31 32 0 0 0
M  V30 BEGIN ATOM
M  V30 1 O 0.0 0.0 0.0 0
M  V30 2 C -1.4095 -0.4933 0.0 0
M  V30 3 O -1.6797 -1.9499 0.0 0
M  V30 4 C -2.5607 0.4816 0.0 0
M  V30 5 C -2.314 1.9616 0.0 0
M  V30 6 C -3.9702 -0.0117 0.0 0
M  V30 7 C -3.4652 2.9366 0.0 0
M  V30 8 C -3.2185 4.4166 0.0 0
M  V30 9 C -4.3696 5.3916 0.0 0
M  V30 10 C -4.123 6.8716 0.0 0
M  V30 11 C -5.7792 4.8982 0.0 0
M  V30 12 C -5.2741 7.8466 0.0 0
M  V30 13 C -5.0274 9.3266 0.0 0
M  V30 14 C -6.1786 10.3016 0.0 0
M  V30 15 C -5.9319 11.7816 0.0 0
M  V30 16 C -7.5882 9.8082 0.0 0
M  V30 17 C -7.0831 12.7566 0.0 0
M  V30 18 C -6.8364 14.2366 0.0 0
M  V30 19 C -7.9875 15.2116 0.0 0 CFG=1
M  V30 20 O -8.7393 16.5155 0.0 0
M  V30 21 C -8.7393 13.9312 0.0 0
M  V30 22 C -6.8599 16.1866 0.0 0
M  V30 23 C -10.2429 16.5272 0.0 0
M  V30 24 C -10.2429 13.943 0.0 0
M  V30 25 C -10.9946 15.2468 0.0 0
M  V30 26 C -10.9946 17.8311 0.0 0
M  V30 27 C -12.4982 15.2586 0.0 0
M  V30 28 C -12.4982 17.8428 0.0 0
M  V30 29 C -10.2546 19.1349 0.0 0
M  V30 30 C -13.2499 16.5624 0.0 0
M  V30 31 O -14.7535 16.5742 0.0 0
M  V30 END ATOM
M  V30 BEGIN BOND
M  V30 1 2 1 2
M  V30 2 1 2 3
M  V30 3 1 2 4
M  V30 4 2 4 5
M  V30 5 1 4 6
M  V30 6 1 5 7
M  V30 7 1 7 8
M  V30 8 1 8 9
M  V30 9 2 9 10
M  V30 10 1 9 11
M  V30 11 1 10 12
M  V30 12 1 12 13
M  V30 13 1 13 14
M  V30 14 2 14 15
M  V30 15 1 14 16
M  V30 16 1 15 17
M  V30 17 1 17 18
M  V30 18 1 18 19
M  V30 19 1 19 20
M  V30 20 1 19 21
M  V30 21 1 19 22 CFG=1
M  V30 22 1 20 23
M  V30 23 1 21 24
M  V30 24 2 23 25
M  V30 25 1 23 26
M  V30 26 1 25 27
M  V30 27 2 26 28
M  V30 28 1 26 29
M  V30 29 2 27 30
M  V30 30 1 30 31
M  V30 31 1 24 25
M  V30 32 1 28 30
M  V30 END BOND
M  V30 BEGIN COLLECTION
M  V30 MDLV30/STEABS ATOMS=(1 19)
M  V30 END COLLECTION
M  V30 END CTAB
M  END
>  <Molecule Name>
CHEMBL4463788

>  <smiles_curated>
C/C(=C\CC/C(C)=C/CC[C@]1(C)CCc2cc(O)cc(C)c2O1)CC/C=C(\C)C(=O)O

>  <pchembl_value>
5.89

>  <target_organism>
Homo sapiens

>  <standard_type>
EC50

>  <target_pref_name>
Pregnane X receptor

>  <assay_description>
Agonist activity at His-tagged PXR-LBD/SRC-1p (unknown origin) expressed in Escherichia coli BL21(DE3) by coactivator recruitment based Alpha-screen assay

>  <activity>
0

$$$$
CHEMBL3318974
Actelion Java MolfileCreator 2.0

  0  0  0  0  0  0              0 V3000
M  V30 BEGIN CTAB
M  V30 COUNTS 26 30 0 0 0
M  V30 BEGIN ATOM
M  V30 1 Cl 0.0 0.0 0.0 0
M  V30 2 C -0.8058 -1.268 0.0 0
M  V30 3 C -0.1066 -2.5834 0.0 0
M  V30 4 C -2.3227 -1.2087 0.0 0
M  V30 5 C -0.9124 -3.8514 0.0 0
M  V30 6 C -3.1285 -2.4767 0.0 0
M  V30 7 C -2.4293 -3.7921 0.0 0
M  V30 8 C -3.2351 -5.0601 0.0 0
M  V30 9 C -2.133 -6.0556 0.0 0
M  V30 10 C -4.6454 -4.4795 0.0 0
M  V30 11 C -4.432 -5.9726 0.0 0
M  V30 12 N -2.299 -7.5369 0.0 0
M  V30 13 N -0.6754 -5.7356 0.0 0
M  V30 14 N -0.9361 -8.1413 0.0 0
M  V30 15 C 0.0711 -7.0273 0.0 0
M  V30 16 C 0.0711 -4.4202 0.0 0
M  V30 17 C 1.5642 -7.0155 0.0 0
M  V30 18 C 1.5642 -4.4083 0.0 0
M  V30 19 O 2.3108 -8.3072 0.0 0
M  V30 20 C 2.3108 -5.7001 0.0 0
M  V30 21 C 3.804 -8.2953 0.0 0
M  V30 22 C 4.5506 -9.587 0.0 0
M  V30 23 C 4.5506 -6.9799 0.0 0
M  V30 24 C 6.0437 -9.5752 0.0 0
M  V30 25 C 6.0437 -6.9681 0.0 0
M  V30 26 O 6.7903 -8.2598 0.0 0
M  V30 END ATOM
M  V30 BEGIN BOND
M  V30 1 1 1 2
M  V30 2 2 2 3
M  V30 3 1 2 4
M  V30 4 1 3 5
M  V30 5 2 4 6
M  V30 6 2 5 7
M  V30 7 1 7 8
M  V30 8 1 8 9
M  V30 9 1 8 10
M  V30 10 1 8 11
M  V30 11 2 9 12
M  V30 12 1 9 13
M  V30 13 1 12 14
M  V30 14 1 13 15
M  V30 15 1 13 16
M  V30 16 1 15 17
M  V30 17 2 16 18
M  V30 18 1 17 19
M  V30 19 2 17 20
M  V30 20 1 19 21
M  V30 21 1 21 22
M  V30 22 1 21 23
M  V30 23 1 22 24
M  V30 24 1 23 25
M  V30 25 1 24 26
M  V30 26 1 6 7
M  V30 27 1 10 11
M  V30 28 2 14 15
M  V30 29 1 18 20
M  V30 30 1 25 26
M  V30 END BOND
M  V30 END CTAB
M  END
>  <Molecule Name>
CHEMBL3318974

>  <smiles_curated>
Clc1ccc(C2(c3nnc4c(OC5CCOCC5)cccn34)CC2)cc1

>  <pchembl_value>
5.0

>  <target_organism>
Homo sapiens

>  <standard_type>
EC50

>  <target_pref_name>
Pregnane X receptor

>  <assay_description>
Activation of PXR (unknown origin)

>  <activity>
0

$$$$
CHEMBL3907312
Actelion Java MolfileCreator 2.0

  0  0  0  0  0  0              0 V3000
M  V30 BEGIN CTAB
M  V30 COUNTS 31 33 0 0 0
M  V30 BEGIN ATOM
M  V30 1 S 0.0 0.0 0.0 0
M  V30 2 O -1.1837 -0.7247 0.0 0
M  V30 3 O 1.4494 0.4831 0.0 0
M  V30 4 C 0.4589 -1.4494 0.0 0
M  V30 5 C -0.4831 1.4736 0.0 0 CFG=2
M  V30 6 C 1.9567 -1.7635 0.0 0
M  V30 7 C -0.5797 -2.5848 0.0 0
M  V30 8 C -1.9084 0.8575 0.0 0
M  V30 9 C 1.0146 1.8118 0.0 0
M  V30 10 C -1.2682 2.8264 0.0 0
M  V30 11 C 2.4157 -3.2129 0.0 0
M  V30 12 C -0.1207 -4.0343 0.0 0
M  V30 13 C -3.1646 1.7755 0.0 0
M  V30 14 C -2.0775 -0.6643 0.0 0
M  V30 15 N 1.1595 3.3579 0.0 0
M  V30 16 C -0.2536 3.986 0.0 0
M  V30 17 C 1.3769 -4.3483 0.0 0
M  V30 18 C -4.5899 1.1595 0.0 0
M  V30 19 C -3.5028 -1.2803 0.0 0
M  V30 20 F 1.8359 -5.7978 0.0 0
M  V30 21 C -4.759 -0.3623 0.0 0
M  V30 22 C -6.1843 -0.9783 0.0 0
M  V30 23 O -5.5683 -2.3795 0.0 0
M  V30 24 C -7.6096 -1.5944 0.0 0
M  V30 25 C -6.8245 0.4469 0.0 0
M  V30 26 F -9.0349 -2.2104 0.0 0
M  V30 27 F -6.9936 -2.9955 0.0 0
M  V30 28 F -8.0928 -0.7972 0.0 0
M  V30 29 F -7.4647 1.8722 0.0 0
M  V30 30 F -7.7063 0.1932 0.0 0
M  V30 31 F -5.6166 1.4132 0.0 0
M  V30 END ATOM
M  V30 BEGIN BOND
M  V30 1 2 1 2
M  V30 2 2 1 3
M  V30 3 1 1 4
M  V30 4 1 5 1 CFG=1
M  V30 5 2 4 6
M  V30 6 1 4 7
M  V30 7 1 5 8
M  V30 8 1 5 9
M  V30 9 1 5 10
M  V30 10 1 6 11
M  V30 11 2 7 12
M  V30 12 2 8 13
M  V30 13 1 8 14
M  V30 14 1 9 15
M  V30 15 1 10 16
M  V30 16 2 11 17
M  V30 17 1 13 18
M  V30 18 2 14 19
M  V30 19 1 17 20
M  V30 20 2 18 21
M  V30 21 1 21 22
M  V30 22 1 22 23
M  V30 23 1 22 24
M  V30 24 1 22 25
M  V30 25 1 24 26
M  V30 26 1 24 27
M  V30 27 1 24 28
M  V30 28 1 25 29
M  V30 29 1 25 30
M  V30 30 1 25 31
M  V30 31 1 12 17
M  V30 32 1 15 16
M  V30 33 1 19 21
M  V30 END BOND
M  V30 BEGIN COLLECTION
M  V30 MDLV30/STEABS ATOMS=(1 5)
M  V30 END COLLECTION
M  V30 END CTAB
M  END
>  <Molecule Name>
CHEMBL3907312

>  <smiles_curated>
O=S(=O)(c1ccc(F)cc1)[C@@]1(c2ccc(C(O)(C(F)(F)F)C(F)(F)F)cc2)CCNC1

>  <pchembl_value>
6.36

>  <target_organism>
Homo sapiens

>  <standard_type>
EC50

>  <target_pref_name>
Pregnane X receptor

>  <assay_description>
Transactivation of PXR in human HepG2 cells

>  <activity>
1

$$$$
CHEMBL2326845
Actelion Java MolfileCreator 2.0

  0  0  0  0  0  0              0 V3000
M  V30 BEGIN CTAB
M  V30 COUNTS 28 29 0 0 0
M  V30 BEGIN ATOM
M  V30 1 S 0.0 0.0 0.0 0
M  V30 2 O -0.0121 1.5554 0.0 0
M  V30 3 O -0.0121 -1.5311 0.0 0
M  V30 4 N -1.5554 0.0121 0.0 0
M  V30 5 C 1.5311 0.0121 0.0 0
M  V30 6 C -2.3331 1.361 0.0 0
M  V30 7 C -2.3331 -1.3123 0.0 0
M  V30 8 C 2.2845 -1.3123 0.0 0
M  V30 9 C 2.2845 1.361 0.0 0
M  V30 10 C -1.5797 2.7098 0.0 0
M  V30 11 C -3.8885 1.3731 0.0 0
M  V30 12 C -1.5797 -2.6369 0.0 0
M  V30 13 C 3.8156 -1.3002 0.0 0
M  V30 14 C 3.8156 1.3731 0.0 0
M  V30 15 C -2.3574 4.0587 0.0 0
M  V30 16 C -4.6663 2.722 0.0 0
M  V30 17 C 4.569 0.0486 0.0 0
M  V30 18 C -3.9128 4.0708 0.0 0
M  V30 19 C -4.6906 5.4197 0.0 0
M  V30 20 O -6.0394 4.6663 0.0 0
M  V30 21 C -5.4683 6.7685 0.0 0
M  V30 22 C -3.366 6.1974 0.0 0
M  V30 23 F -6.246 8.1174 0.0 0
M  V30 24 F -6.8171 6.0151 0.0 0
M  V30 25 F -4.7513 7.3275 0.0 0
M  V30 26 F -2.0415 6.9872 0.0 0
M  V30 27 F -3.7306 7.048 0.0 0
M  V30 28 F -2.3088 5.1037 0.0 0
M  V30 END ATOM
M  V30 BEGIN BOND
M  V30 1 2 1 2
M  V30 2 2 1 3
M  V30 3 1 1 4
M  V30 4 1 1 5
M  V30 5 1 4 6
M  V30 6 1 4 7
M  V30 7 2 5 8
M  V30 8 1 5 9
M  V30 9 2 6 10
M  V30 10 1 6 11
M  V30 11 1 7 12
M  V30 12 1 8 13
M  V30 13 2 9 14
M  V30 14 1 10 15
M  V30 15 2 11 16
M  V30 16 2 13 17
M  V30 17 2 15 18
M  V30 18 1 18 19
M  V30 19 1 19 20
M  V30 20 1 19 21
M  V30 21 1 19 22
M  V30 22 1 21 23
M  V30 23 1 21 24
M  V30 24 1 21 25
M  V30 25 1 22 26
M  V30 26 1 22 27
M  V30 27 1 22 28
M  V30 28 1 14 17
M  V30 29 1 16 18
M  V30 END BOND
M  V30 END CTAB
M  END
>  <Molecule Name>
CHEMBL2326845

>  <smiles_curated>
CCN(c1ccc(C(O)(C(F)(F)F)C(F)(F)F)cc1)S(=O)(=O)c1ccccc1

>  <pchembl_value>
7.41

>  <target_organism>
Homo sapiens

>  <standard_type>
EC50

>  <target_pref_name>
Pregnane X receptor

>  <assay_description>
Agonist activity at GAL4-fused human PXR expressed in HEK293T cells assessed as activation of basal transcriptional activity after 20 hrs by dual-glo luciferase reporter gene assay

>  <activity>
1

$$$$
CHEMBL650
Actelion Java MolfileCreator 2.0

  0  0  0  0  0  0              0 V3000
M  V30 BEGIN CTAB
M  V30 COUNTS 27 30 0 0 0
M  V30 BEGIN ATOM
M  V30 1 O 0.0 0.0 0.0 0
M  V30 2 C 0.7488 -1.2955 0.0 0
M  V30 3 C -0.0118 -2.5911 0.0 0
M  V30 4 C 2.2464 -1.2836 0.0 0
M  V30 5 C 0.7369 -3.8866 0.0 0
M  V30 6 C 2.9952 -2.5792 0.0 0
M  V30 7 C 2.2345 -3.8747 0.0 0 CFG=2
M  V30 8 C -0.0237 -5.1822 0.0 0 CFG=2
M  V30 9 C 2.9833 -5.1703 0.0 0 CFG=1
M  V30 10 C 3.7321 -3.8628 0.0 0
M  V30 11 C 0.725 -6.4777 0.0 0
M  V30 12 C -1.5451 -5.1703 0.0 0
M  V30 13 C 4.4809 -5.1584 0.0 0 CFG=1
M  V30 14 C 2.2226 -6.4658 0.0 0 CFG=1
M  V30 15 O 5.2297 -3.8391 0.0 0
M  V30 16 C 5.2297 -6.4539 0.0 0
M  V30 17 C 2.9714 -7.7614 0.0 0 CFG=1
M  V30 18 C 4.469 -7.7495 0.0 0 CFG=1
M  V30 19 C 2.496 -9.1877 0.0 0
M  V30 20 C 4.9207 -9.1758 0.0 0 CFG=1
M  V30 21 C 5.9666 -7.7138 0.0 0
M  V30 22 C 3.7083 -10.0672 0.0 0
M  V30 23 O 6.347 -8.7241 0.0 0
M  V30 24 C 5.6695 -10.4713 0.0 0
M  V30 25 O 7.1671 -10.4595 0.0 0
M  V30 26 C 4.9088 -11.7669 0.0 0
M  V30 27 O 5.6576 -13.0624 0.0 0
M  V30 END ATOM
M  V30 BEGIN BOND
M  V30 1 2 1 2
M  V30 2 1 2 3
M  V30 3 1 2 4
M  V30 4 2 3 5
M  V30 5 2 4 6
M  V30 6 1 5 7
M  V30 7 1 5 8
M  V30 8 1 7 9
M  V30 9 1 7 10 CFG=1
M  V30 10 1 8 11
M  V30 11 1 8 12 CFG=3
M  V30 12 1 9 13 CFG=1
M  V30 13 1 9 14
M  V30 14 1 13 15 CFG=1
M  V30 15 1 13 16
M  V30 16 1 14 17
M  V30 17 1 16 18
M  V30 18 1 17 19 CFG=1
M  V30 19 1 18 20
M  V30 20 1 18 21 CFG=1
M  V30 21 1 19 22
M  V30 22 1 20 23 CFG=3
M  V30 23 1 20 24
M  V30 24 2 24 25
M  V30 25 1 24 26
M  V30 26 1 26 27
M  V30 27 1 6 7
M  V30 28 1 14 11 CFG=3
M  V30 29 1 17 18
M  V30 30 1 20 22
M  V30 END BOND
M  V30 BEGIN COLLECTION
M  V30 MDLV30/STEABS ATOMS=(8 7 8 9 13 14 17 18 20)
M  V30 END COLLECTION
M  V30 END CTAB
M  END
>  <Molecule Name>
CHEMBL650

>  <smiles_curated>
C[C@H]1C[C@H]2[C@@H]3CC[C@](O)(C(=O)CO)[C@@]3(C)C[C@H](O)[C@@H]2[C@@]2(C)C=CC(=O)C=C12

>  <pchembl_value>
4.9

>  <target_organism>
Homo sapiens

>  <standard_type>
EC50

>  <target_pref_name>
Pregnane X receptor

>  <assay_description>
Activation of human PXR expressed in human HepG2 (DPX-2) cells assessed as induction of CYP3A4 after 24 hrs by luminescent analysis

>  <activity>
0

$$$$
CHEMBL3318962
Actelion Java MolfileCreator 2.0

  0  0  0  0  0  0              0 V3000
M  V30 BEGIN CTAB
M  V30 COUNTS 27 31 0 0 0
M  V30 BEGIN ATOM
M  V30 1 Cl 0.0 0.0 0.0 0
M  V30 2 C 0.7425 -1.2847 0.0 0
M  V30 3 C -0.0117 -2.5694 0.0 0
M  V30 4 C 2.2276 -1.2729 0.0 0
M  V30 5 O -1.5204 -2.5576 0.0 0
M  V30 6 C 0.7307 -3.8541 0.0 0
M  V30 7 C 2.9701 -2.5576 0.0 0
M  V30 8 C -2.2747 -1.2493 0.0 0
M  V30 9 C 2.2158 -3.8423 0.0 0
M  V30 10 C -3.7834 -1.2375 0.0 0
M  V30 11 C -1.5322 0.0589 0.0 0
M  V30 12 N -4.797 -2.3336 0.0 0
M  V30 13 N -4.5377 0.0707 0.0 0
M  V30 14 C -2.2865 1.3672 0.0 0
M  V30 15 N -6.176 -1.709 0.0 0
M  V30 16 C -6.011 -0.2239 0.0 0
M  V30 17 C -3.7952 1.379 0.0 0
M  V30 18 C -7.1307 0.7896 0.0 0
M  V30 19 C -6.3528 2.0743 0.0 0
M  V30 20 C -8.5333 1.3672 0.0 0
M  V30 21 C -8.3211 -0.1178 0.0 0
M  V30 22 C -4.8677 2.039 0.0 0
M  V30 23 C -7.0718 3.4062 0.0 0
M  V30 24 C -4.0898 3.3237 0.0 0
M  V30 25 C -6.2939 4.6909 0.0 0
M  V30 26 C -4.8088 4.6556 0.0 0
M  V30 27 Cl -4.0309 5.9403 0.0 0
M  V30 END ATOM
M  V30 BEGIN BOND
M  V30 1 1 1 2
M  V30 2 2 2 3
M  V30 3 1 2 4
M  V30 4 1 3 5
M  V30 5 1 3 6
M  V30 6 2 4 7
M  V30 7 1 5 8
M  V30 8 2 6 9
M  V30 9 1 8 10
M  V30 10 2 8 11
M  V30 11 2 10 12
M  V30 12 1 10 13
M  V30 13 1 11 14
M  V30 14 1 12 15
M  V30 15 1 13 16
M  V30 16 1 13 17
M  V30 17 1 16 18
M  V30 18 1 18 19
M  V30 19 1 18 20
M  V30 20 1 18 21
M  V30 21 2 19 22
M  V30 22 1 19 23
M  V30 23 1 22 24
M  V30 24 2 23 25
M  V30 25 2 24 26
M  V30 26 1 26 27
M  V30 27 1 7 9
M  V30 28 2 14 17
M  V30 29 2 15 16
M  V30 30 1 20 21
M  V30 31 1 25 26
M  V30 END BOND
M  V30 END CTAB
M  END
>  <Molecule Name>
CHEMBL3318962

>  <smiles_curated>
Clc1ccc(C2(c3nnc4c(Oc5ccccc5Cl)cccn34)CC2)cc1

>  <pchembl_value>
6.01

>  <target_organism>
Homo sapiens

>  <standard_type>
EC50

>  <target_pref_name>
Pregnane X receptor

>  <assay_description>
Activation of PXR (unknown origin)

>  <activity>
1

$$$$
CHEMBL3318967
Actelion Java MolfileCreator 2.0

  0  0  0  0  0  0              0 V3000
M  V30 BEGIN CTAB
M  V30 COUNTS 31 35 0 0 0
M  V30 BEGIN ATOM
M  V30 1 Cl 0.0 0.0 0.0 0
M  V30 2 C -0.805 -1.2667 0.0 0
M  V30 3 C -0.1065 -2.5807 0.0 0
M  V30 4 C -2.3203 -1.2075 0.0 0
M  V30 5 C -0.9115 -3.8474 0.0 0
M  V30 6 C -3.1253 -2.4742 0.0 0
M  V30 7 C -2.4268 -3.7882 0.0 0
M  V30 8 C -3.2318 -5.055 0.0 0
M  V30 9 C -2.1309 -6.0494 0.0 0
M  V30 10 C -4.6406 -4.4749 0.0 0
M  V30 11 C -4.4275 -5.9665 0.0 0
M  V30 12 N -2.2966 -7.5292 0.0 0
M  V30 13 N -0.6747 -5.7297 0.0 0
M  V30 14 N -0.9352 -8.1329 0.0 0
M  V30 15 C 0.071 -7.0201 0.0 0
M  V30 16 C 0.071 -4.4157 0.0 0
M  V30 17 C 1.5626 -7.0083 0.0 0
M  V30 18 C 1.5626 -4.4038 0.0 0
M  V30 19 O 2.3084 -8.2987 0.0 0
M  V30 20 C 2.3084 -5.6942 0.0 0
M  V30 21 C 3.8001 -8.2868 0.0 0
M  V30 22 C 4.5459 -6.9728 0.0 0
M  V30 23 C 4.5459 -9.5772 0.0 0
M  V30 24 O 3.7882 -5.6587 0.0 0
M  V30 25 C 6.0375 -6.9609 0.0 0
M  V30 26 C 6.0375 -9.5654 0.0 0
M  V30 27 C 4.5341 -4.3446 0.0 0
M  V30 28 C 6.7834 -8.2513 0.0 0
M  V30 29 F 5.2799 -3.0306 0.0 0
M  V30 30 F 3.22 -3.587 0.0 0
M  V30 31 F 5.8244 -5.0905 0.0 0
M  V30 END ATOM
M  V30 BEGIN BOND
M  V30 1 1 1 2
M  V30 2 2 2 3
M  V30 3 1 2 4
M  V30 4 1 3 5
M  V30 5 2 4 6
M  V30 6 2 5 7
M  V30 7 1 7 8
M  V30 8 1 8 9
M  V30 9 1 8 10
M  V30 10 1 8 11
M  V30 11 2 9 12
M  V30 12 1 9 13
M  V30 13 1 12 14
M  V30 14 1 13 15
M  V30 15 1 13 16
M  V30 16 1 15 17
M  V30 17 2 16 18
M  V30 18 1 17 19
M  V30 19 2 17 20
M  V30 20 1 19 21
M  V30 21 2 21 22
M  V30 22 1 21 23
M  V30 23 1 22 24
M  V30 24 1 22 25
M  V30 25 2 23 26
M  V30 26 1 24 27
M  V30 27 2 25 28
M  V30 28 1 27 29
M  V30 29 1 27 30
M  V30 30 1 27 31
M  V30 31 1 6 7
M  V30 32 1 10 11
M  V30 33 2 14 15
M  V30 34 1 18 20
M  V30 35 1 26 28
M  V30 END BOND
M  V30 END CTAB
M  END
>  <Molecule Name>
CHEMBL3318967

>  <smiles_curated>
FC(F)(F)Oc1ccccc1Oc1cccn2c(C3(c4ccc(Cl)cc4)CC3)nnc12

>  <pchembl_value>
6.52

>  <target_organism>
Homo sapiens

>  <standard_type>
EC50

>  <target_pref_name>
Pregnane X receptor

>  <assay_description>
Activation of PXR (unknown origin)

>  <activity>
1

$$$$
CHEMBL3318980
Actelion Java MolfileCreator 2.0

  0  0  0  0  0  0              0 V3000
M  V30 BEGIN CTAB
M  V30 COUNTS 20 23 0 0 0
M  V30 BEGIN ATOM
M  V30 1 Cl 0.0 0.0 0.0 0
M  V30 2 C 0.6976 1.3361 0.0 0
M  V30 3 C -0.1064 2.6249 0.0 0
M  V30 4 C 2.1874 1.3952 0.0 0
M  V30 5 C 0.5911 3.961 0.0 0
M  V30 6 C 2.885 2.7313 0.0 0
M  V30 7 C 2.081 4.0201 0.0 0
M  V30 8 C 2.7786 5.3562 0.0 0
M  V30 9 C 4.1975 4.9069 0.0 0
M  V30 10 C 1.5844 6.2903 0.0 0
M  V30 11 C 2.9796 6.8579 0.0 0
M  V30 12 N 5.4035 5.8055 0.0 0
M  V30 13 N 4.6468 3.488 0.0 0
M  V30 14 N 6.6096 4.9305 0.0 0
M  V30 15 C 6.1366 3.4998 0.0 0
M  V30 16 C 3.89 2.1992 0.0 0
M  V30 17 C 6.8815 2.211 0.0 0
M  V30 18 C 4.6349 0.9104 0.0 0
M  V30 19 C 6.1248 0.9222 0.0 0
M  V30 20 C 8.3713 2.2229 0.0 0
M  V30 END ATOM
M  V30 BEGIN BOND
M  V30 1 1 1 2
M  V30 2 2 2 3
M  V30 3 1 2 4
M  V30 4 1 3 5
M  V30 5 2 4 6
M  V30 6 2 5 7
M  V30 7 1 7 8
M  V30 8 1 8 9
M  V30 9 1 8 10
M  V30 10 1 8 11
M  V30 11 2 9 12
M  V30 12 1 9 13
M  V30 13 1 12 14
M  V30 14 1 13 15
M  V30 15 1 13 16
M  V30 16 1 15 17
M  V30 17 2 16 18
M  V30 18 2 17 19
M  V30 19 1 17 20
M  V30 20 1 6 7
M  V30 21 1 10 11
M  V30 22 2 14 15
M  V30 23 1 18 19
M  V30 END BOND
M  V30 END CTAB
M  END
>  <Molecule Name>
CHEMBL3318980

>  <smiles_curated>
Cc1cccn2c(C3(c4ccc(Cl)cc4)CC3)nnc12

>  <pchembl_value>
5.06

>  <target_organism>
Homo sapiens

>  <standard_type>
EC50

>  <target_pref_name>
Pregnane X receptor

>  <assay_description>
Activation of PXR (unknown origin)

>  <activity>
0

$$$$
CHEMBL3334815
Actelion Java MolfileCreator 2.0

  0  0  0  0  0  0              0 V3000
M  V30 BEGIN CTAB
M  V30 COUNTS 32 34 0 0 0
M  V30 BEGIN ATOM
M  V30 1 Cl 0.0 0.0 0.0 0
M  V30 2 C 1.408 -0.5011 0.0 0
M  V30 3 C 2.5536 0.4892 0.0 0
M  V30 4 C 1.6586 -1.9808 0.0 0
M  V30 5 C 3.9617 -0.0119 0.0 0
M  V30 6 C 3.0667 -2.482 0.0 0
M  V30 7 C 4.2123 -1.4916 0.0 0
M  V30 8 C 5.6204 -1.9927 0.0 0 CFG=2
M  V30 9 O 5.8709 -0.4892 0.0 0
M  V30 10 C 4.8566 -3.2934 0.0 0
M  V30 11 C 7.1239 -1.9808 0.0 0
M  V30 12 C 5.6084 -4.5941 0.0 0
M  V30 13 C 3.6872 -4.26 0.0 0
M  V30 14 C 3.7469 -2.7445 0.0 0
M  V30 15 C 7.8757 -3.2815 0.0 0
M  V30 16 N 7.112 -4.5822 0.0 0
M  V30 17 C 7.8637 -5.8829 0.0 0
M  V30 18 O 9.3673 -5.8709 0.0 0
M  V30 19 C 7.1 -7.1836 0.0 0 CFG=2
M  V30 20 N 5.5726 -7.1716 0.0 0
M  V30 21 C 7.8518 -8.4842 0.0 0
M  V30 22 C 4.8089 -8.4723 0.0 0
M  V30 23 C 7.0881 -9.7849 0.0 0
M  V30 24 C 9.3554 -8.4723 0.0 0
M  V30 25 O 5.5607 -9.773 0.0 0
M  V30 26 N 3.2815 -8.4604 0.0 0
M  V30 27 C 2.5178 -9.7611 0.0 0 CFG=2
M  V30 28 C 1.0023 -9.9043 0.0 0
M  V30 29 C 3.1264 -11.1334 0.0 0
M  V30 30 C 0.6801 -11.372 0.0 0 CFG=1
M  V30 31 C 1.9927 -12.1357 0.0 0
M  V30 32 O -0.7159 -11.9806 0.0 0
M  V30 END ATOM
M  V30 BEGIN BOND
M  V30 1 1 1 2
M  V30 2 2 2 3
M  V30 3 1 2 4
M  V30 4 1 3 5
M  V30 5 2 4 6
M  V30 6 2 5 7
M  V30 7 1 7 8
M  V30 8 1 8 9 CFG=3
M  V30 9 1 8 10
M  V30 10 1 8 11
M  V30 11 1 10 12
M  V30 12 1 10 13
M  V30 13 1 10 14
M  V30 14 1 11 15
M  V30 15 1 12 16
M  V30 16 1 16 17
M  V30 17 2 17 18
M  V30 18 1 17 19
M  V30 19 1 19 20 CFG=1
M  V30 20 1 19 21
M  V30 21 1 20 22
M  V30 22 1 21 23
M  V30 23 1 21 24
M  V30 24 2 22 25
M  V30 25 1 22 26
M  V30 26 1 27 26 CFG=1
M  V30 27 1 27 28
M  V30 28 1 27 29
M  V30 29 1 28 30
M  V30 30 1 29 31
M  V30 31 1 30 32 CFG=1
M  V30 32 1 6 7
M  V30 33 1 15 16
M  V30 34 1 30 31
M  V30 END BOND
M  V30 BEGIN COLLECTION
M  V30 MDLV30/STEABS ATOMS=(4 8 19 27 30)
M  V30 END COLLECTION
M  V30 END CTAB
M  END
>  <Molecule Name>
CHEMBL3334815

>  <smiles_curated>
CC(C)[C@@H](NC(=O)N[C@H]1CC[C@@H](O)C1)C(=O)N1CC[C@](O)(c2ccc(Cl)cc2)C(C)(C)C1

>  <pchembl_value>
4.72

>  <target_organism>
Homo sapiens

>  <standard_type>
EC50

>  <target_pref_name>
Pregnane X receptor

>  <assay_description>
Transactivation of human full-length PXR transfected in human HepG2 cells after 24 hrs by luciferase reporter gene assay

>  <activity>
0

$$$$
CHEMBL29609
Actelion Java MolfileCreator 2.0

  0  0  0  0  0  0              0 V3000
M  V30 BEGIN CTAB
M  V30 COUNTS 27 29 0 0 0
M  V30 BEGIN ATOM
M  V30 1 F 0.0 0.0 0.0 0
M  V30 2 C -0.1664 -1.4864 0.0 0
M  V30 3 F 1.3199 -1.6291 0.0 0
M  V30 4 F -1.6766 -1.3199 0.0 0
M  V30 5 C -0.3329 -2.9728 0.0 0
M  V30 6 O -1.6528 -3.7219 0.0 0
M  V30 7 N 0.7729 -3.9716 0.0 0
M  V30 8 N -1.3556 -5.1846 0.0 0
M  V30 9 C 0.1426 -5.3391 0.0 0
M  V30 10 C 0.8918 -6.6353 0.0 0
M  V30 11 C 2.3901 -6.6234 0.0 0
M  V30 12 C 0.1308 -7.9314 0.0 0
M  V30 13 C 3.1392 -7.9195 0.0 0
M  V30 14 C 0.8799 -9.2276 0.0 0
M  V30 15 C 2.3782 -9.2157 0.0 0
M  V30 16 C 4.6376 -7.9077 0.0 0
M  V30 17 C 0.1189 -10.5237 0.0 0
M  V30 18 O 3.1274 -10.5118 0.0 0
M  V30 19 C 2.3663 -11.808 0.0 0
M  V30 20 C 3.1155 -13.1041 0.0 0
M  V30 21 C 2.3544 -14.4003 0.0 0
M  V30 22 C 3.1036 -15.6964 0.0 0
M  V30 23 O 4.59 -15.8391 0.0 0
M  V30 24 C 2.4733 -17.0639 0.0 0
M  V30 25 N 4.8873 -17.3018 0.0 0
M  V30 26 C 3.5792 -18.0628 0.0 0
M  V30 27 C 3.4127 -19.5492 0.0 0
M  V30 END ATOM
M  V30 BEGIN BOND
M  V30 1 1 1 2
M  V30 2 1 2 3
M  V30 3 1 2 4
M  V30 4 1 2 5
M  V30 5 1 5 6
M  V30 6 2 5 7
M  V30 7 1 6 8
M  V30 8 1 7 9
M  V30 9 1 9 10
M  V30 10 2 10 11
M  V30 11 1 10 12
M  V30 12 1 11 13
M  V30 13 2 12 14
M  V30 14 2 13 15
M  V30 15 1 13 16
M  V30 16 1 14 17
M  V30 17 1 15 18
M  V30 18 1 18 19
M  V30 19 1 19 20
M  V30 20 1 20 21
M  V30 21 1 21 22
M  V30 22 1 22 23
M  V30 23 2 22 24
M  V30 24 1 23 25
M  V30 25 1 24 26
M  V30 26 1 26 27
M  V30 27 2 8 9
M  V30 28 1 14 15
M  V30 29 2 25 26
M  V30 END BOND
M  V30 END CTAB
M  END
>  <Molecule Name>
CHEMBL29609

>  <smiles_curated>
Cc1noc(CCCOc2c(C)cc(-c3noc(C(F)(F)F)n3)cc2C)c1

>  <pchembl_value>
6.6

>  <target_organism>
Homo sapiens

>  <standard_type>
EC50

>  <target_pref_name>
Pregnane X receptor

>  <assay_description>
Activation of human PXR expressed in african green monkey CV1 cells transfected with pSG5-hPXRDATG and (ER6)3-tk-CAT reporter

>  <activity>
1

$$$$
CHEMBL516337
Actelion Java MolfileCreator 2.0

  0  0  0  0  0  0              0 V3000
M  V30 BEGIN CTAB
M  V30 COUNTS 27 30 0 0 0
M  V30 BEGIN ATOM
M  V30 1 S 0.0 0.0 0.0 0
M  V30 2 O -1.3063 0.7532 0.0 0
M  V30 3 O 1.2828 -0.7414 0.0 0
M  V30 4 N 0.7414 1.3063 0.0 0
M  V30 5 C -0.7532 -1.2828 0.0 0
M  V30 6 C -0.0117 2.6126 0.0 0
M  V30 7 C -0.0117 -2.5656 0.0 0
M  V30 8 C -2.2596 -1.271 0.0 0
M  V30 9 C -1.5181 2.6244 0.0 0
M  V30 10 C 0.7296 3.919 0.0 0
M  V30 11 F 1.4711 -2.5538 0.0 0
M  V30 12 C -0.7649 -3.8484 0.0 0
M  V30 13 C -3.0128 -2.5538 0.0 0
M  V30 14 C -2.2713 3.9307 0.0 0
M  V30 15 C -0.0235 5.2253 0.0 0
M  V30 16 C -2.2713 -3.8366 0.0 0
M  V30 17 N -3.7424 4.2485 0.0 0
M  V30 18 C -1.5299 5.2371 0.0 0
M  V30 19 C -3.9072 5.7431 0.0 0
M  V30 20 N -2.542 6.3551 0.0 0
M  V30 21 C -2.2478 7.8262 0.0 0
M  V30 22 C -3.3658 8.8383 0.0 0
M  V30 23 C -3.0716 10.3094 0.0 0
M  V30 24 C -4.8016 8.3911 0.0 0
M  V30 25 C -4.1896 11.3216 0.0 0
M  V30 26 C -5.9197 9.4032 0.0 0
M  V30 27 C -5.6254 10.8743 0.0 0
M  V30 END ATOM
M  V30 BEGIN BOND
M  V30 1 2 1 2
M  V30 2 2 1 3
M  V30 3 1 1 4
M  V30 4 1 1 5
M  V30 5 1 4 6
M  V30 6 2 5 7
M  V30 7 1 5 8
M  V30 8 2 6 9
M  V30 9 1 6 10
M  V30 10 1 7 11
M  V30 11 1 7 12
M  V30 12 2 8 13
M  V30 13 1 9 14
M  V30 14 2 10 15
M  V30 15 2 12 16
M  V30 16 1 14 17
M  V30 17 2 14 18
M  V30 18 2 17 19
M  V30 19 1 18 20
M  V30 20 1 20 21
M  V30 21 1 21 22
M  V30 22 2 22 23
M  V30 23 1 22 24
M  V30 24 1 23 25
M  V30 25 2 24 26
M  V30 26 2 25 27
M  V30 27 1 13 16
M  V30 28 1 15 18
M  V30 29 1 19 20
M  V30 30 1 26 27
M  V30 END BOND
M  V30 END CTAB
M  END
>  <Molecule Name>
CHEMBL516337

>  <smiles_curated>
O=S(=O)(Nc1ccc2c(c1)ncn2Cc1ccccc1)c1ccccc1F

>  <pchembl_value>
7.0

>  <target_organism>
Homo sapiens

>  <standard_type>
EC50

>  <target_pref_name>
Pregnane X receptor

>  <assay_description>
Agonist activity at human pregnane X receptor expressed in HGPXR reporter cells

>  <activity>
1

$$$$
CHEMBL4439746
Actelion Java MolfileCreator 2.0

  0  0  0  0  0  0              0 V3000
M  V30 BEGIN CTAB
M  V30 COUNTS 27 30 0 0 0
M  V30 BEGIN ATOM
M  V30 1 Cl 0.0 0.0 0.0 0
M  V30 2 C 0.1415 -1.4739 0.0 0
M  V30 3 C 1.4975 -2.0753 0.0 0
M  V30 4 C -1.0848 -2.3465 0.0 0
M  V30 5 Cl 2.7003 -1.1791 0.0 0
M  V30 6 C 1.639 -3.5493 0.0 0
M  V30 7 C -0.9433 -3.8205 0.0 0
M  V30 8 C 0.4127 -4.4219 0.0 0
M  V30 9 C -2.1696 -4.6931 0.0 0
M  V30 10 O -3.5493 -4.0681 0.0 0
M  V30 11 N -4.7756 -4.9407 0.0 0
M  V30 12 C -6.1553 -4.3158 0.0 0
M  V30 13 C -7.3816 -5.1883 0.0 0
M  V30 14 N -7.3934 -6.6741 0.0 0
M  V30 15 C -8.8202 -4.7167 0.0 0
M  V30 16 C -8.832 -7.1222 0.0 0
M  V30 17 C -6.5208 -7.8769 0.0 0
M  V30 18 N -9.7164 -5.9194 0.0 0
M  V30 19 C -9.2919 -3.2781 0.0 0
M  V30 20 O -8.8438 -8.608 0.0 0
M  V30 21 C -7.417 -9.0796 0.0 0
M  V30 22 C -8.3014 -2.1579 0.0 0
M  V30 23 C -10.7659 -2.9597 0.0 0
M  V30 24 C -8.7731 -0.7193 0.0 0
M  V30 25 C -11.2375 -1.5211 0.0 0
M  V30 26 C -10.247 -0.4009 0.0 0
M  V30 27 Cl -10.7187 1.0376 0.0 0
M  V30 END ATOM
M  V30 BEGIN BOND
M  V30 1 1 1 2
M  V30 2 2 2 3
M  V30 3 1 2 4
M  V30 4 1 3 5
M  V30 5 1 3 6
M  V30 6 2 4 7
M  V30 7 2 6 8
M  V30 8 1 7 9
M  V30 9 1 9 10
M  V30 10 1 10 11
M  V30 11 2 11 12
M  V30 12 1 12 13
M  V30 13 1 13 14
M  V30 14 2 13 15
M  V30 15 1 14 16
M  V30 16 1 14 17
M  V30 17 1 15 18
M  V30 18 1 15 19
M  V30 19 1 16 20
M  V30 20 2 17 21
M  V30 21 2 19 22
M  V30 22 1 19 23
M  V30 23 1 22 24
M  V30 24 2 23 25
M  V30 25 2 24 26
M  V30 26 1 26 27
M  V30 27 1 7 8
M  V30 28 2 16 18
M  V30 29 1 20 21
M  V30 30 1 25 26
M  V30 END BOND
M  V30 END CTAB
M  END
>  <Molecule Name>
CHEMBL4439746

>  <smiles_curated>
Clc1ccc(-c2c(/C=N/OCc3ccc(Cl)c(Cl)c3)n3ccoc3n2)cc1

>  <pchembl_value>
5.89

>  <target_organism>
Homo sapiens

>  <standard_type>
EC50

>  <target_pref_name>
Pregnane X receptor

>  <assay_description>
Agonist activity at human PXR transfected in human HepG2 cells cotransfected with CYP3A4 incubated for 23 hrs by luciferase reporter gene assay

>  <activity>
0

$$$$
CHEMBL497121
Actelion Java MolfileCreator 2.0

  0  0  0  0  0  0              0 V3000
M  V30 BEGIN CTAB
M  V30 COUNTS 30 34 0 0 0
M  V30 BEGIN ATOM
M  V30 1 Cl 0.0 0.0 0.0 0
M  V30 2 C 0.7437 1.3103 0.0 0
M  V30 3 C 2.2311 1.3221 0.0 0
M  V30 4 C -0.0118 2.6207 0.0 0
M  V30 5 C 2.9748 0.0354 0.0 0
M  V30 6 C 2.9748 2.6325 0.0 0
M  V30 7 C 0.7319 3.931 0.0 0
M  V30 8 N 2.3491 -1.3221 0.0 0
M  V30 9 N 4.4504 -0.1062 0.0 0
M  V30 10 C 2.2193 3.9428 0.0 0
M  V30 11 C -0.0236 5.2414 0.0 0
M  V30 12 N 3.447 -2.3137 0.0 0
M  V30 13 C 4.7456 -1.5582 0.0 0
M  V30 14 C 5.4421 1.0152 0.0 0
M  V30 15 N -1.5346 5.2532 0.0 0
M  V30 16 C 0.7201 6.5517 0.0 0
M  V30 17 C 6.1031 -2.1603 0.0 0
M  V30 18 C -2.2901 6.5635 0.0 0
M  V30 19 C -0.0354 7.8621 0.0 0
M  V30 20 C 6.7052 -0.7791 0.0 0
M  V30 21 C 5.4775 -3.5178 0.0 0
M  V30 22 C 7.4607 -2.7623 0.0 0
M  V30 23 C -1.5464 7.8739 0.0 0
M  V30 24 C 8.1808 -0.6138 0.0 0
M  V30 25 C 5.808 0.4485 0.0 0
M  V30 26 C 6.8351 -4.1199 0.0 0
M  V30 27 C 8.7829 0.7673 0.0 0
M  V30 28 C 6.4101 1.8297 0.0 0
M  V30 29 C 7.8857 1.995 0.0 0
M  V30 30 Cl 8.4878 3.3762 0.0 0
M  V30 END ATOM
M  V30 BEGIN BOND
M  V30 1 1 1 2
M  V30 2 2 2 3
M  V30 3 1 2 4
M  V30 4 1 3 5
M  V30 5 1 3 6
M  V30 6 2 4 7
M  V30 7 2 5 8
M  V30 8 1 5 9
M  V30 9 2 6 10
M  V30 10 1 7 11
M  V30 11 1 8 12
M  V30 12 1 9 13
M  V30 13 1 9 14
M  V30 14 2 11 15
M  V30 15 1 11 16
M  V30 16 1 13 17
M  V30 17 1 15 18
M  V30 18 2 16 19
M  V30 19 1 17 20
M  V30 20 1 17 21
M  V30 21 1 17 22
M  V30 22 2 18 23
M  V30 23 2 20 24
M  V30 24 1 20 25
M  V30 25 1 21 26
M  V30 26 1 24 27
M  V30 27 2 25 28
M  V30 28 2 27 29
M  V30 29 1 29 30
M  V30 30 1 7 10
M  V30 31 2 12 13
M  V30 32 1 19 23
M  V30 33 1 22 26
M  V30 34 1 28 29
M  V30 END BOND
M  V30 END CTAB
M  END
>  <Molecule Name>
CHEMBL497121

>  <smiles_curated>
Cn1c(-c2ccc(-c3ccccn3)cc2Cl)nnc1C1(c2ccc(Cl)cc2)CCC1

>  <pchembl_value>
5.62

>  <target_organism>
Homo sapiens

>  <standard_type>
EC50

>  <target_pref_name>
Pregnane X receptor

>  <assay_description>
Agonist activity at human PXR

>  <activity>
0

$$$$
CHEMBL175247
Actelion Java MolfileCreator 2.0

  0  0  0  0  0  0              0 V3000
M  V30 BEGIN CTAB
M  V30 COUNTS 35 35 0 0 0
M  V30 BEGIN ATOM
M  V30 1 O 0.0 0.0 0.0 0
M  V30 2 C 1.496 0.0118 0.0 0
M  V30 3 O 2.5527 -1.0448 0.0 0
M  V30 4 C 2.5527 1.0923 0.0 0 CFG=2
M  V30 5 C 3.6094 0.0356 0.0 0 CFG=2
M  V30 6 C 2.5408 2.612 0.0 0
M  V30 7 C 5.1054 0.0474 0.0 0
M  V30 8 C 3.835 3.3719 0.0 0
M  V30 9 C 5.8415 -1.2466 0.0 0 CFG=1
M  V30 10 C 3.8231 4.8917 0.0 0
M  V30 11 O 5.0816 -2.5408 0.0 0
M  V30 12 C 7.3375 -1.2348 0.0 0
M  V30 13 C 5.1173 5.6515 0.0 0
M  V30 14 C 5.8178 -3.835 0.0 0
M  V30 15 C 8.0737 -2.5289 0.0 0
M  V30 16 C 5.1054 7.1713 0.0 0
M  V30 17 O 7.3138 -3.8231 0.0 0
M  V30 18 C 5.0579 -5.1291 0.0 0 CFG=1
M  V30 19 C 9.5697 -2.517 0.0 0
M  V30 20 C 6.3996 7.9312 0.0 0
M  V30 21 N 3.5381 -5.1173 0.0 0
M  V30 22 C 5.794 -6.4233 0.0 0
M  V30 23 C 10.3058 -3.8112 0.0 0
M  V30 24 C 2.7783 -6.4114 0.0 0
M  V30 25 C 5.0341 -7.7175 0.0 0
M  V30 26 C 11.8018 -3.7993 0.0 0
M  V30 27 O 1.2585 -6.3996 0.0 0
M  V30 28 C 5.7703 -9.0116 0.0 0
M  V30 29 C 3.5144 -7.7056 0.0 0
M  V30 30 C 12.5379 -5.0935 0.0 0
M  V30 31 C 14.034 -5.0816 0.0 0
M  V30 32 C 14.7701 -6.3758 0.0 0
M  V30 33 C 16.2661 -6.3639 0.0 0
M  V30 34 C 17.0022 -7.6581 0.0 0
M  V30 35 C 18.4982 -7.6462 0.0 0
M  V30 END ATOM
M  V30 BEGIN BOND
M  V30 1 2 1 2
M  V30 2 1 2 3
M  V30 3 1 2 4
M  V30 4 1 3 5
M  V30 5 1 4 6 CFG=1
M  V30 6 1 5 7 CFG=3
M  V30 7 1 6 8
M  V30 8 1 7 9
M  V30 9 1 8 10
M  V30 10 1 9 11 CFG=3
M  V30 11 1 9 12
M  V30 12 1 10 13
M  V30 13 1 11 14
M  V30 14 1 12 15
M  V30 15 1 13 16
M  V30 16 2 14 17
M  V30 17 1 14 18
M  V30 18 1 15 19
M  V30 19 1 16 20
M  V30 20 1 18 21 CFG=3
M  V30 21 1 18 22
M  V30 22 1 19 23
M  V30 23 1 21 24
M  V30 24 1 22 25
M  V30 25 1 23 26
M  V30 26 2 24 27
M  V30 27 1 25 28
M  V30 28 1 25 29
M  V30 29 1 26 30
M  V30 30 1 30 31
M  V30 31 1 31 32
M  V30 32 1 32 33
M  V30 33 1 33 34
M  V30 34 1 34 35
M  V30 35 1 4 5
M  V30 END BOND
M  V30 BEGIN COLLECTION
M  V30 MDLV30/STEABS ATOMS=(4 4 5 9 18)
M  V30 END COLLECTION
M  V30 END CTAB
M  END
>  <Molecule Name>
CHEMBL175247

>  <smiles_curated>
CCCCCCCCCCC[C@@H](C[C@@H]1OC(=O)[C@H]1CCCCCC)OC(=O)[C@H](CC(C)C)NC=O

>  <pchembl_value>
5.18

>  <target_organism>
Homo sapiens

>  <standard_type>
EC50

>  <target_pref_name>
Pregnane X receptor

>  <assay_description>
Activation of human PXR expressed in human HepG2 (DPX-2) cells assessed as induction of CYP3A4 after 24 hrs by luminescent analysis,Competitive binding affinity to human PXR LBD (111 to 434) by TR-FRET assay

>  <activity>
0

$$$$
CHEMBL3318961
Actelion Java MolfileCreator 2.0

  0  0  0  0  0  0              0 V3000
M  V30 BEGIN CTAB
M  V30 COUNTS 26 30 0 0 0
M  V30 BEGIN ATOM
M  V30 1 Cl 0.0 0.0 0.0 0
M  V30 2 C -0.8058 -1.268 0.0 0
M  V30 3 C -0.1066 -2.5834 0.0 0
M  V30 4 C -2.3227 -1.2087 0.0 0
M  V30 5 C -0.9124 -3.8514 0.0 0
M  V30 6 C -3.1285 -2.4767 0.0 0
M  V30 7 C -2.4293 -3.7921 0.0 0
M  V30 8 C -3.2351 -5.0601 0.0 0
M  V30 9 C -2.133 -6.0556 0.0 0
M  V30 10 C -4.6454 -4.4795 0.0 0
M  V30 11 C -4.432 -5.9726 0.0 0
M  V30 12 N -2.299 -7.5369 0.0 0
M  V30 13 N -0.6754 -5.7356 0.0 0
M  V30 14 N -0.9361 -8.1413 0.0 0
M  V30 15 C 0.0711 -7.0273 0.0 0
M  V30 16 C 0.0711 -4.4202 0.0 0
M  V30 17 C 1.5642 -7.0155 0.0 0
M  V30 18 C 1.5642 -4.4083 0.0 0
M  V30 19 O 2.3108 -8.3072 0.0 0
M  V30 20 C 2.3108 -5.7001 0.0 0
M  V30 21 C 3.804 -8.2953 0.0 0
M  V30 22 C 4.5506 -9.587 0.0 0
M  V30 23 C 4.5506 -6.9799 0.0 0
M  V30 24 C 6.0437 -9.5752 0.0 0
M  V30 25 C 6.0437 -6.9681 0.0 0
M  V30 26 C 6.7903 -8.2598 0.0 0
M  V30 END ATOM
M  V30 BEGIN BOND
M  V30 1 1 1 2
M  V30 2 2 2 3
M  V30 3 1 2 4
M  V30 4 1 3 5
M  V30 5 2 4 6
M  V30 6 2 5 7
M  V30 7 1 7 8
M  V30 8 1 8 9
M  V30 9 1 8 10
M  V30 10 1 8 11
M  V30 11 2 9 12
M  V30 12 1 9 13
M  V30 13 1 12 14
M  V30 14 1 13 15
M  V30 15 1 13 16
M  V30 16 1 15 17
M  V30 17 2 16 18
M  V30 18 1 17 19
M  V30 19 2 17 20
M  V30 20 1 19 21
M  V30 21 2 21 22
M  V30 22 1 21 23
M  V30 23 1 22 24
M  V30 24 2 23 25
M  V30 25 2 24 26
M  V30 26 1 6 7
M  V30 27 1 10 11
M  V30 28 2 14 15
M  V30 29 1 18 20
M  V30 30 1 25 26
M  V30 END BOND
M  V30 END CTAB
M  END
>  <Molecule Name>
CHEMBL3318961

>  <smiles_curated>
Clc1ccc(C2(c3nnc4c(Oc5ccccc5)cccn34)CC2)cc1

>  <pchembl_value>
5.75

>  <target_organism>
Homo sapiens

>  <standard_type>
EC50

>  <target_pref_name>
Pregnane X receptor

>  <assay_description>
Activation of PXR (unknown origin)

>  <activity>
0

$$$$
CHEMBL3334822
Actelion Java MolfileCreator 2.0

  0  0  0  0  0  0              0 V3000
M  V30 BEGIN CTAB
M  V30 COUNTS 29 30 0 0 0
M  V30 BEGIN ATOM
M  V30 1 Cl 0.0 0.0 0.0 0
M  V30 2 C 1.137 0.983 0.0 0
M  V30 3 C 0.8646 2.4753 0.0 0
M  V30 4 C 2.5346 0.4856 0.0 0
M  V30 5 C 2.0016 3.4584 0.0 0
M  V30 6 C 3.6716 1.4686 0.0 0
M  V30 7 C 3.3992 2.9609 0.0 0
M  V30 8 C 4.5362 3.944 0.0 0 CFG=2
M  V30 9 O 3.3755 4.927 0.0 0
M  V30 10 C 5.2824 5.2587 0.0 0
M  V30 11 C 5.2824 2.653 0.0 0
M  V30 12 C 6.7747 5.2705 0.0 0
M  V30 13 C 3.8611 5.7798 0.0 0
M  V30 14 C 5.5311 6.751 0.0 0
M  V30 15 C 6.7747 2.6648 0.0 0
M  V30 16 N 7.5209 3.9795 0.0 0
M  V30 17 C 9.0132 3.9914 0.0 0
M  V30 18 O 9.7594 5.3061 0.0 0
M  V30 19 C 9.7594 2.7004 0.0 0 CFG=2
M  V30 20 N 9.0014 1.4094 0.0 0
M  V30 21 C 11.2517 2.7122 0.0 0
M  V30 22 C 9.7475 0.1184 0.0 0
M  V30 23 C 11.9979 1.4212 0.0 0
M  V30 24 C 11.9979 4.0269 0.0 0
M  V30 25 O 11.2399 0.1302 0.0 0
M  V30 26 C 8.9895 -1.1725 0.0 0
M  V30 27 C 9.7357 -2.4635 0.0 0 CFG=2
M  V30 28 O 11.228 -2.4517 0.0 0
M  V30 29 C 8.9777 -3.7545 0.0 0
M  V30 END ATOM
M  V30 BEGIN BOND
M  V30 1 1 1 2
M  V30 2 2 2 3
M  V30 3 1 2 4
M  V30 4 1 3 5
M  V30 5 2 4 6
M  V30 6 2 5 7
M  V30 7 1 7 8
M  V30 8 1 8 9 CFG=1
M  V30 9 1 8 10
M  V30 10 1 8 11
M  V30 11 1 10 12
M  V30 12 1 10 13
M  V30 13 1 10 14
M  V30 14 1 11 15
M  V30 15 1 12 16
M  V30 16 1 16 17
M  V30 17 2 17 18
M  V30 18 1 17 19
M  V30 19 1 19 20 CFG=1
M  V30 20 1 19 21
M  V30 21 1 20 22
M  V30 22 1 21 23
M  V30 23 1 21 24
M  V30 24 2 22 25
M  V30 25 1 22 26
M  V30 26 1 26 27
M  V30 27 1 27 28 CFG=3
M  V30 28 1 27 29
M  V30 29 1 6 7
M  V30 30 1 15 16
M  V30 END BOND
M  V30 BEGIN COLLECTION
M  V30 MDLV30/STEABS ATOMS=(3 8 19 27)
M  V30 END COLLECTION
M  V30 END CTAB
M  END
>  <Molecule Name>
CHEMBL3334822

>  <smiles_curated>
CC(C)[C@@H](NC(=O)C[C@@H](C)O)C(=O)N1CC[C@](O)(c2ccc(Cl)cc2)C(C)(C)C1

>  <pchembl_value>
5.11

>  <target_organism>
Homo sapiens

>  <standard_type>
EC50

>  <target_pref_name>
Pregnane X receptor

>  <assay_description>
Transactivation of human full-length PXR transfected in human HepG2 cells after 24 hrs by luciferase reporter gene assay

>  <activity>
0

$$$$
CHEMBL1527352
Actelion Java MolfileCreator 2.0

  0  0  0  0  0  0              0 V3000
M  V30 BEGIN CTAB
M  V30 COUNTS 19 22 0 0 0
M  V30 BEGIN ATOM
M  V30 1 N 0.0 0.0 0.0 0
M  V30 2 C 0.7466 1.3154 0.0 0
M  V30 3 C 0.7466 -1.2917 0.0 0
M  V30 4 C 2.2398 1.3273 0.0 0
M  V30 5 C -0.0118 2.6309 0.0 0
M  V30 6 N 0.2725 -2.7139 0.0 0
M  V30 7 C 2.2398 -1.2799 0.0 0
M  V30 8 N 2.9865 0.0355 0.0 0
M  V30 9 C 2.9865 2.6428 0.0 0
M  V30 10 C 0.7347 3.9464 0.0 0
M  V30 11 C 1.4814 -3.5909 0.0 0
M  V30 12 C -1.1732 -3.1642 0.0 0
M  V30 13 C 2.6902 -2.702 0.0 0
M  V30 14 C 2.228 3.9583 0.0 0
M  V30 15 C 1.6236 -5.0723 0.0 0
M  V30 16 C 4.0531 -3.3064 0.0 0
M  V30 17 C 2.9865 -5.6767 0.0 0
M  V30 18 C 4.1953 -4.7879 0.0 0
M  V30 19 C 5.5582 -5.3923 0.0 0
M  V30 END ATOM
M  V30 BEGIN BOND
M  V30 1 1 1 2
M  V30 2 2 1 3
M  V30 3 1 2 4
M  V30 4 2 2 5
M  V30 5 1 3 6
M  V30 6 1 3 7
M  V30 7 1 4 8
M  V30 8 2 4 9
M  V30 9 1 5 10
M  V30 10 1 6 11
M  V30 11 1 6 12
M  V30 12 1 7 13
M  V30 13 1 9 14
M  V30 14 1 11 15
M  V30 15 1 13 16
M  V30 16 2 15 17
M  V30 17 2 16 18
M  V30 18 1 18 19
M  V30 19 2 7 8
M  V30 20 2 10 14
M  V30 21 2 11 13
M  V30 22 1 17 18
M  V30 END BOND
M  V30 END CTAB
M  END
>  <Molecule Name>
CHEMBL1527352

>  <smiles_curated>
Cc1ccc2c(c1)c1nc3ccccc3nc1n2C

>  <pchembl_value>
4.15

>  <target_organism>
Homo sapiens

>  <standard_type>
EC50

>  <target_pref_name>
Pregnane X receptor

>  <assay_description>
PUBCHEM_BIOASSAY: Luminescence-based counterscreen for activators of the Aryl Hydrocarbon Receptor (AHR): cell-based high throughput dose response screening assay for activators of the Pregnane X Receptor (PXR). (Class of assay: confirmatory) [Related pubchem assays: 2796 (Primary screen (AHR activators in singlicate)), 2845 (Confirmation screen (AHR activators in triplicate)), 434939 (Counterscreen (PXR activators in triplicate)), 2804 (Summary (AHR activators))]

>  <activity>
0

$$$$
CHEMBL464687
Actelion Java MolfileCreator 2.0

  0  0  0  0  0  0              0 V3000
M  V30 BEGIN CTAB
M  V30 COUNTS 30 34 0 0 0
M  V30 BEGIN ATOM
M  V30 1 O 0.0 0.0 0.0 0
M  V30 2 C -0.7565 1.3121 0.0 0
M  V30 3 N -2.2697 1.324 0.0 0
M  V30 4 C -0.0118 2.6243 0.0 0
M  V30 5 C -3.0263 0.0354 0.0 0
M  V30 6 C 1.4776 2.6361 0.0 0
M  V30 7 C -4.5394 0.0472 0.0 0
M  V30 8 C -2.2815 -1.253 0.0 0
M  V30 9 C 2.2224 3.9483 0.0 0
M  V30 10 C 2.2224 1.3476 0.0 0
M  V30 11 C -5.296 -1.2412 0.0 0
M  V30 12 C -3.0381 -2.5416 0.0 0
M  V30 13 C 3.7119 3.9602 0.0 0
M  V30 14 C 1.4658 5.2605 0.0 0
M  V30 15 C 3.7119 1.3594 0.0 0
M  V30 16 N -6.7737 -1.5367 0.0 0
M  V30 17 C -4.5512 -2.5298 0.0 0
M  V30 18 C 4.4567 2.6716 0.0 0
M  V30 19 C 4.4567 5.2723 0.0 0
M  V30 20 C 2.2106 6.5727 0.0 0
M  V30 21 C -6.9392 -3.0144 0.0 0
M  V30 22 N -5.5679 -3.6292 0.0 0
M  V30 23 C 3.7001 6.5845 0.0 0
M  V30 24 C -5.2723 -5.0832 0.0 0
M  V30 25 C -6.3954 -6.0762 0.0 0
M  V30 26 C -7.8376 -5.6033 0.0 0
M  V30 27 C -6.0999 -7.5303 0.0 0
M  V30 28 C -8.9607 -6.5964 0.0 0
M  V30 29 C -7.2229 -8.5233 0.0 0
M  V30 30 C -8.6651 -8.0504 0.0 0
M  V30 END ATOM
M  V30 BEGIN BOND
M  V30 1 2 1 2
M  V30 2 1 2 3
M  V30 3 1 2 4
M  V30 4 1 3 5
M  V30 5 1 4 6
M  V30 6 2 5 7
M  V30 7 1 5 8
M  V30 8 1 6 9
M  V30 9 2 6 10
M  V30 10 1 7 11
M  V30 11 2 8 12
M  V30 12 1 9 13
M  V30 13 2 9 14
M  V30 14 1 10 15
M  V30 15 1 11 16
M  V30 16 2 11 17
M  V30 17 1 13 18
M  V30 18 2 13 19
M  V30 19 1 14 20
M  V30 20 2 16 21
M  V30 21 1 17 22
M  V30 22 1 19 23
M  V30 23 1 22 24
M  V30 24 1 24 25
M  V30 25 2 25 26
M  V30 26 1 25 27
M  V30 27 1 26 28
M  V30 28 2 27 29
M  V30 29 2 28 30
M  V30 30 1 12 17
M  V30 31 2 15 18
M  V30 32 2 20 23
M  V30 33 1 21 22
M  V30 34 1 29 30
M  V30 END BOND
M  V30 END CTAB
M  END
>  <Molecule Name>
CHEMBL464687

>  <smiles_curated>
O=C(Cc1cccc2ccccc12)Nc1ccc2c(c1)ncn2Cc1ccccc1

>  <pchembl_value>
6.66

>  <target_organism>
Homo sapiens

>  <standard_type>
EC50

>  <target_pref_name>
Pregnane X receptor

>  <assay_description>
Agonist activity at human pregnane X receptor expressed in HGPXR reporter cells

>  <activity>
1

$$$$
CHEMBL448245
Actelion Java MolfileCreator 2.0

  0  0  0  0  0  0              0 V3000
M  V30 BEGIN CTAB
M  V30 COUNTS 16 17 0 0 0
M  V30 BEGIN ATOM
M  V30 1 Cl 0.0 0.0 0.0 0
M  V30 2 C 0.7494 -1.2967 0.0 0
M  V30 3 C 2.2484 -1.2848 0.0 0
M  V30 4 C -0.0118 -2.5934 0.0 0
M  V30 5 C 2.9978 -2.5815 0.0 0
M  V30 6 C 0.7375 -3.8901 0.0 0
M  V30 7 C 2.2365 -3.8782 0.0 0
M  V30 8 C 2.9859 -5.1749 0.0 0
M  V30 9 N 2.3554 -6.543 0.0 0
M  V30 10 C 4.473 -5.3176 0.0 0
M  V30 11 N 3.4618 -7.5422 0.0 0
M  V30 12 C 4.7704 -6.7809 0.0 0
M  V30 13 N 6.1385 -7.3876 0.0 0
M  V30 14 C 6.2812 -8.8746 0.0 0
M  V30 15 O 5.044 -9.755 0.0 0
M  V30 16 C 7.6493 -9.4814 0.0 0
M  V30 END ATOM
M  V30 BEGIN BOND
M  V30 1 1 1 2
M  V30 2 2 2 3
M  V30 3 1 2 4
M  V30 4 1 3 5
M  V30 5 2 4 6
M  V30 6 2 5 7
M  V30 7 1 7 8
M  V30 8 2 8 9
M  V30 9 1 8 10
M  V30 10 1 9 11
M  V30 11 2 10 12
M  V30 12 1 12 13
M  V30 13 1 13 14
M  V30 14 2 14 15
M  V30 15 1 14 16
M  V30 16 1 6 7
M  V30 17 1 11 12
M  V30 END BOND
M  V30 END CTAB
M  END
>  <Molecule Name>
CHEMBL448245

>  <smiles_curated>
CC(=O)Nc1cc(-c2ccc(Cl)cc2)n[nH]1

>  <pchembl_value>
4.13

>  <target_organism>
Homo sapiens

>  <standard_type>
EC50

>  <target_pref_name>
Pregnane X receptor

>  <assay_description>
PUBCHEM_BIOASSAY: Luminescence-based counterscreen for activators of the Aryl Hydrocarbon Receptor (AHR): cell-based high throughput dose response screening assay for activators of the Pregnane X Receptor (PXR). (Class of assay: confirmatory) [Related pubchem assays: 2796 (Primary screen (AHR activators in singlicate)), 2845 (Confirmation screen (AHR activators in triplicate)), 434939 (Counterscreen (PXR activators in triplicate)), 2804 (Summary (AHR activators))]

>  <activity>
0

$$$$
CHEMBL312862
Actelion Java MolfileCreator 2.0

  0  0  0  0  0  0              0 V3000
M  V30 BEGIN CTAB
M  V30 COUNTS 27 29 0 0 0
M  V30 BEGIN ATOM
M  V30 1 O 0.0 0.0 0.0 0
M  V30 2 C 1.3391 0.6636 0.0 0
M  V30 3 C 2.5006 -0.2607 0.0 0
M  V30 4 C 1.3273 2.1806 0.0 0
M  V30 5 O 2.1569 -1.7184 0.0 0
M  V30 6 C 3.9583 0.0829 0.0 0
M  V30 7 C 2.4887 3.1287 0.0 0
M  V30 8 C 0.711 -2.145 0.0 0
M  V30 9 C 4.5982 1.4458 0.0 0
M  V30 10 C 3.9464 2.8087 0.0 0
M  V30 11 C 1.825 4.4916 0.0 0 CFG=1
M  V30 12 C 5.1078 3.7568 0.0 0
M  V30 13 N 0.3081 4.5034 0.0 0
M  V30 14 C 2.465 5.8545 0.0 0
M  V30 15 C 6.3996 3.022 0.0 0
M  V30 16 C 5.096 5.2738 0.0 0
M  V30 17 C -0.4503 5.8189 0.0 0
M  V30 18 C 3.9227 6.1982 0.0 0
M  V30 19 O 6.3878 1.5288 0.0 0
M  V30 20 C 7.6914 3.7805 0.0 0
M  V30 21 C 6.3878 6.0322 0.0 0
M  V30 22 C 7.6796 0.794 0.0 0
M  V30 23 O 8.9832 3.0457 0.0 0
M  V30 24 C 7.6796 5.2975 0.0 0
M  V30 25 C 8.9714 1.5525 0.0 0
M  V30 26 O 8.9714 6.0559 0.0 0
M  V30 27 C 10.2631 5.3212 0.0 0
M  V30 END ATOM
M  V30 BEGIN BOND
M  V30 1 2 1 2
M  V30 2 1 2 3
M  V30 3 1 2 4
M  V30 4 1 3 5
M  V30 5 2 3 6
M  V30 6 2 4 7
M  V30 7 1 5 8
M  V30 8 1 6 9
M  V30 9 1 7 10
M  V30 10 1 7 11
M  V30 11 1 10 12
M  V30 12 1 11 13 CFG=1
M  V30 13 1 11 14
M  V30 14 2 12 15
M  V30 15 1 12 16
M  V30 16 1 13 17
M  V30 17 1 14 18
M  V30 18 1 15 19
M  V30 19 1 15 20
M  V30 20 2 16 21
M  V30 21 1 19 22
M  V30 22 1 20 23
M  V30 23 2 20 24
M  V30 24 1 23 25
M  V30 25 1 24 26
M  V30 26 1 26 27
M  V30 27 2 9 10
M  V30 28 1 16 18
M  V30 29 1 21 24
M  V30 END BOND
M  V30 BEGIN COLLECTION
M  V30 MDLV30/STEABS ATOMS=(1 11)
M  V30 END COLLECTION
M  V30 END CTAB
M  END
>  <Molecule Name>
CHEMBL312862

>  <smiles_curated>
CN[C@H]1CCc2cc(OC)c(OC)c(OC)c2-c2ccc(OC)c(=O)cc21

>  <pchembl_value>
4.88

>  <target_organism>
Homo sapiens

>  <standard_type>
EC50

>  <target_pref_name>
Pregnane X receptor

>  <assay_description>
Activation of human PXR expressed in human HepG2 (DPX-2) cells after 24 hrs by luciferase reporter gene based luminescent analysis,Competitive binding affinity to human PXR LBD (111 to 434) by TR-FRET assay

>  <activity>
0

$$$$
CHEMBL4543651
Actelion Java MolfileCreator 2.0

  0  0  0  0  0  0              0 V3000
M  V30 BEGIN CTAB
M  V30 COUNTS 22 26 0 0 0
M  V30 BEGIN ATOM
M  V30 1 S 0.0 0.0 0.0 0
M  V30 2 C -1.4342 -0.4467 0.0 0
M  V30 3 C -0.0117 1.5047 0.0 0
M  V30 4 C -2.3276 0.7758 0.0 0
M  V30 5 C -1.4459 1.975 0.0 0
M  V30 6 C -3.8324 0.7876 0.0 0 CFG=2
M  V30 7 N -4.5848 2.0925 0.0 0
M  V30 8 C -4.5848 -0.4937 0.0 0 CFG=2
M  V30 9 C -6.0895 2.1043 0.0 0
M  V30 10 C -6.0895 -0.4819 0.0 0 CFG=2
M  V30 11 C -4.1381 -1.9044 0.0 0
M  V30 12 C -6.8419 0.8229 0.0 0
M  V30 13 C -6.8419 3.4092 0.0 0
M  V30 14 O -6.5598 -1.8927 0.0 0
M  V30 15 C -5.3607 -2.7744 0.0 0
M  V30 16 C -8.3467 0.8346 0.0 0
M  V30 17 C -8.3467 3.4209 0.0 0
M  V30 18 C -6.1013 4.7141 0.0 0
M  V30 19 C -9.0991 2.1395 0.0 0
M  V30 20 C -9.0991 4.7259 0.0 0
M  V30 21 C -6.8537 6.019 0.0 0
M  V30 22 C -8.3584 6.0308 0.0 0
M  V30 END ATOM
M  V30 BEGIN BOND
M  V30 1 1 1 2
M  V30 2 1 1 3
M  V30 3 2 2 4
M  V30 4 2 3 5
M  V30 5 1 6 4 CFG=1
M  V30 6 1 6 7
M  V30 7 1 6 8
M  V30 8 1 7 9
M  V30 9 1 8 10
M  V30 10 1 8 11 CFG=1
M  V30 11 2 9 12
M  V30 12 1 9 13
M  V30 13 1 10 14 CFG=1
M  V30 14 1 11 15
M  V30 15 1 12 16
M  V30 16 2 13 17
M  V30 17 1 13 18
M  V30 18 2 16 19
M  V30 19 1 17 20
M  V30 20 1 18 21
M  V30 21 1 20 22
M  V30 22 1 4 5
M  V30 23 1 10 12
M  V30 24 1 14 15
M  V30 25 1 17 19
M  V30 26 1 21 22
M  V30 END BOND
M  V30 BEGIN COLLECTION
M  V30 MDLV30/STEABS ATOMS=(3 6 8 10)
M  V30 END COLLECTION
M  V30 END CTAB
M  END
>  <Molecule Name>
CHEMBL4543651

>  <smiles_curated>
c1cc([C@@H]2Nc3c(ccc4c3CCCC4)[C@@H]3OCC[C@H]23)cs1

>  <pchembl_value>
5.46

>  <target_organism>
Homo sapiens

>  <standard_type>
EC50

>  <target_pref_name>
Pregnane X receptor

>  <assay_description>
Agonist activity at PXR (unknown origin) by AlphaScreen assay

>  <activity>
0

$$$$
CHEMBL242293
Actelion Java MolfileCreator 2.0

  0  0  0  0  0  0              0 V3000
M  V30 BEGIN CTAB
M  V30 COUNTS 33 35 0 0 0
M  V30 BEGIN ATOM
M  V30 1 S 0.0 0.0 0.0 0
M  V30 2 O -1.3123 -0.7448 0.0 0
M  V30 3 O 1.2886 0.7566 0.0 0
M  V30 4 N 0.7448 -1.2886 0.0 0
M  V30 5 C -0.7566 1.3123 0.0 0
M  V30 6 C -0.0118 -2.5773 0.0 0
M  V30 7 C 2.2344 -1.2768 0.0 0
M  V30 8 C -0.0118 2.6246 0.0 0
M  V30 9 C -2.2699 1.3241 0.0 0
M  V30 10 C -1.5251 -2.5655 0.0 0
M  V30 11 C 0.733 -3.866 0.0 0
M  V30 12 C 2.9793 -2.5655 0.0 0
M  V30 13 C -0.7684 3.9369 0.0 0
M  V30 14 C -3.0266 2.6364 0.0 0
M  V30 15 C -2.2817 -3.8542 0.0 0
M  V30 16 C -0.0236 -5.1546 0.0 0
M  V30 17 F 3.7241 -3.8542 0.0 0
M  V30 18 F 4.2679 -1.8088 0.0 0
M  V30 19 F 1.667 -3.3103 0.0 0
M  V30 20 C -2.2817 3.9487 0.0 0
M  V30 21 C -1.5369 -5.1428 0.0 0
M  V30 22 C -2.2936 -6.4315 0.0 0 CFG=1
M  V30 23 O -3.6059 -5.6748 0.0 0
M  V30 24 C -3.0502 -7.7202 0.0 0
M  V30 25 C -1.0049 -7.1763 0.0 0
M  V30 26 C -4.5635 -7.7084 0.0 0
M  V30 27 C -2.3054 -9.0089 0.0 0
M  V30 28 F 0.2837 -7.9212 0.0 0
M  V30 29 F 0.0236 -6.0886 0.0 0
M  V30 30 F -1.4305 -8.6069 0.0 0
M  V30 31 C -5.3202 -8.997 0.0 0
M  V30 32 C -3.062 -10.2975 0.0 0
M  V30 33 C -4.5753 -10.2857 0.0 0
M  V30 END ATOM
M  V30 BEGIN BOND
M  V30 1 2 1 2
M  V30 2 2 1 3
M  V30 3 1 1 4
M  V30 4 1 1 5
M  V30 5 1 4 6
M  V30 6 1 4 7
M  V30 7 2 5 8
M  V30 8 1 5 9
M  V30 9 2 6 10
M  V30 10 1 6 11
M  V30 11 1 7 12
M  V30 12 1 8 13
M  V30 13 2 9 14
M  V30 14 1 10 15
M  V30 15 2 11 16
M  V30 16 1 12 17
M  V30 17 1 12 18
M  V30 18 1 12 19
M  V30 19 2 13 20
M  V30 20 2 15 21
M  V30 21 1 21 22
M  V30 22 1 22 23
M  V30 23 1 22 24 CFG=3
M  V30 24 1 22 25
M  V30 25 2 24 26
M  V30 26 1 24 27
M  V30 27 1 25 28
M  V30 28 1 25 29
M  V30 29 1 25 30
M  V30 30 1 26 31
M  V30 31 2 27 32
M  V30 32 2 31 33
M  V30 33 1 14 20
M  V30 34 1 16 21
M  V30 35 1 32 33
M  V30 END BOND
M  V30 BEGIN COLLECTION
M  V30 MDLV30/STERAC1 ATOMS=(1 22)
M  V30 END COLLECTION
M  V30 END CTAB
M  END
>  <Molecule Name>
CHEMBL242293

>  <smiles_curated>
O=S(=O)(c1ccccc1)N(CC(F)(F)F)c1ccc(C(O)(c2ccccc2)C(F)(F)F)cc1

>  <pchembl_value>
7.8

>  <target_organism>
Homo sapiens

>  <standard_type>
EC50

>  <target_pref_name>
Pregnane X receptor

>  <assay_description>
Antagonist activity at human PXR by transient transfection assay

>  <activity>
1

$$$$
CHEMBL3198275
Actelion Java MolfileCreator 2.0

  0  0  0  0  0  0              0 V3000
M  V30 BEGIN CTAB
M  V30 COUNTS 26 28 0 0 0
M  V30 BEGIN ATOM
M  V30 1 Br 0.0 0.0 0.0 0
M  V30 2 C -1.2221 -0.8696 0.0 0
M  V30 3 C -1.0811 -2.3385 0.0 0
M  V30 4 C -2.5971 -0.2467 0.0 0
M  V30 5 N -2.3033 -3.2081 0.0 0
M  V30 6 C -3.8192 -1.1164 0.0 0
M  V30 7 C -3.6782 -2.5853 0.0 0
M  V30 8 C -5.1942 -0.4935 0.0 0
M  V30 9 O -6.4163 -1.3631 0.0 0
M  V30 10 N -5.3587 0.9988 0.0 0
M  V30 11 N -6.7336 1.6217 0.0 0
M  V30 12 C -6.8981 3.1141 0.0 0
M  V30 13 C -8.2731 3.737 0.0 0
M  V30 14 O -8.5904 5.2059 0.0 0
M  V30 15 C -9.5775 2.9966 0.0 0
M  V30 16 C -10.0828 5.3704 0.0 0
M  V30 17 C -10.6939 4.0072 0.0 0
M  V30 18 C -10.8349 6.6749 0.0 0
M  V30 19 C -12.3391 6.6866 0.0 0
M  V30 20 C -10.0946 7.9793 0.0 0
M  V30 21 N -13.0912 5.4057 0.0 0 CHG=1
M  V30 22 C -13.0912 7.991 0.0 0
M  V30 23 C -10.8467 9.2837 0.0 0
M  V30 24 O -12.3509 4.1248 0.0 0
M  V30 25 O -14.5954 5.4174 0.0 0 CHG=-1
M  V30 26 C -12.3509 9.2955 0.0 0
M  V30 END ATOM
M  V30 BEGIN BOND
M  V30 1 1 1 2
M  V30 2 2 2 3
M  V30 3 1 2 4
M  V30 4 1 3 5
M  V30 5 2 4 6
M  V30 6 2 5 7
M  V30 7 1 6 8
M  V30 8 2 8 9
M  V30 9 1 8 10
M  V30 10 1 10 11
M  V30 11 2 11 12
M  V30 12 1 12 13
M  V30 13 1 13 14
M  V30 14 2 13 15
M  V30 15 1 14 16
M  V30 16 1 15 17
M  V30 17 1 16 18
M  V30 18 2 18 19
M  V30 19 1 18 20
M  V30 20 1 19 21
M  V30 21 1 19 22
M  V30 22 2 20 23
M  V30 23 2 21 24
M  V30 24 1 21 25
M  V30 25 2 22 26
M  V30 26 1 6 7
M  V30 27 2 16 17
M  V30 28 1 23 26
M  V30 END BOND
M  V30 END CTAB
M  END
>  <Molecule Name>
CHEMBL3198275

>  <smiles_curated>
O=C(N/N=C/c1ccc(-c2ccccc2[N+](=O)[O-])o1)c1cncc(Br)c1

>  <pchembl_value>
4.03

>  <target_organism>
Homo sapiens

>  <standard_type>
EC50

>  <target_pref_name>
Pregnane X receptor

>  <assay_description>
PUBCHEM_BIOASSAY: Luminescence-based counterscreen for activators of the Aryl Hydrocarbon Receptor (AHR): cell-based high throughput dose response screening assay for activators of the Pregnane X Receptor (PXR). (Class of assay: confirmatory) [Related pubchem assays: 2796 (Primary screen (AHR activators in singlicate)), 2845 (Confirmation screen (AHR activators in triplicate)), 434939 (Counterscreen (PXR activators in triplicate)), 2804 (Summary (AHR activators))]

>  <activity>
0

$$$$
CHEMBL4449679
Actelion Java MolfileCreator 2.0

  0  0  0  0  0  0              0 V3000
M  V30 BEGIN CTAB
M  V30 COUNTS 29 33 0 0 0
M  V30 BEGIN ATOM
M  V30 1 S 0.0 0.0 0.0 0
M  V30 2 C -1.4359 0.4708 0.0 0
M  V30 3 C -0.0117 -1.483 0.0 0
M  V30 4 C -2.3305 -0.7297 0.0 0
M  V30 5 C -1.4477 -1.9303 0.0 0
M  V30 6 C -3.837 -0.7179 0.0 0 CFG=1
M  V30 7 N -4.5903 0.5885 0.0 0
M  V30 8 C -4.5903 -2.0009 0.0 0 CFG=1
M  V30 9 C -6.0969 0.6002 0.0 0
M  V30 10 C -6.0969 -1.9891 0.0 0 CFG=1
M  V30 11 C -4.1431 -3.4133 0.0 0
M  V30 12 C -6.8502 -0.6826 0.0 0
M  V30 13 C -6.8502 1.9067 0.0 0
M  V30 14 N -6.5677 -3.4015 0.0 0
M  V30 15 C -5.3672 -4.2843 0.0 0
M  V30 16 C -8.3568 -0.6709 0.0 0
M  V30 17 C -8.3568 1.9185 0.0 0
M  V30 18 C -6.1087 3.2132 0.0 0
M  V30 19 C -8.0037 -3.8488 0.0 0
M  V30 20 C -9.1101 0.6355 0.0 0
M  V30 21 C -9.1101 3.225 0.0 0
M  V30 22 C -6.862 4.5197 0.0 0
M  V30 23 O -9.1219 -2.8366 0.0 0
M  V30 24 O -8.3215 -5.2965 0.0 0
M  V30 25 C -8.3686 4.5315 0.0 0
M  V30 26 C -9.7575 -5.7438 0.0 0
M  V30 27 C -9.3102 -7.1562 0.0 0
M  V30 28 C -10.2283 -4.3078 0.0 0
M  V30 29 C -11.1934 -6.1911 0.0 0
M  V30 END ATOM
M  V30 BEGIN BOND
M  V30 1 1 1 2
M  V30 2 1 1 3
M  V30 3 2 2 4
M  V30 4 2 3 5
M  V30 5 1 6 4 CFG=3
M  V30 6 1 6 7
M  V30 7 1 6 8
M  V30 8 1 7 9
M  V30 9 1 8 10
M  V30 10 1 8 11 CFG=3
M  V30 11 2 9 12
M  V30 12 1 9 13
M  V30 13 1 10 14 CFG=3
M  V30 14 1 11 15
M  V30 15 1 12 16
M  V30 16 2 13 17
M  V30 17 1 13 18
M  V30 18 1 14 19
M  V30 19 2 16 20
M  V30 20 1 17 21
M  V30 21 1 18 22
M  V30 22 2 19 23
M  V30 23 1 19 24
M  V30 24 1 21 25
M  V30 25 1 24 26
M  V30 26 1 26 27
M  V30 27 1 26 28
M  V30 28 1 26 29
M  V30 29 1 4 5
M  V30 30 1 10 12
M  V30 31 1 14 15
M  V30 32 1 17 20
M  V30 33 1 22 25
M  V30 END BOND
M  V30 BEGIN COLLECTION
M  V30 MDLV30/STEABS ATOMS=(3 6 8 10)
M  V30 END COLLECTION
M  V30 END CTAB
M  END
>  <Molecule Name>
CHEMBL4449679

>  <smiles_curated>
CC(C)(C)OC(=O)N1CC[C@H]2[C@@H](c3cscc3)Nc3c(ccc4c3CCCC4)[C@H]21

>  <pchembl_value>
5.5

>  <target_organism>
Homo sapiens

>  <standard_type>
EC50

>  <target_pref_name>
Pregnane X receptor

>  <assay_description>
Agonist activity at PXR (unknown origin) by AlphaScreen assay

>  <activity>
0

$$$$
CHEMBL1200600
Actelion Java MolfileCreator 2.0

  0  0  0  0  0  0              0 V3000
M  V30 BEGIN CTAB
M  V30 COUNTS 27 30 0 0 0
M  V30 BEGIN ATOM
M  V30 1 F 0.0 0.0 0.0 0
M  V30 2 C 0.5344 -0.7165 0.0 0 CFG=2
M  V30 3 C 1.2995 0.6315 0.0 0 CFG=2
M  V30 4 C -1.0202 -0.7044 0.0 0 CFG=1
M  V30 5 C 1.2995 -2.0404 0.0 0 CFG=2
M  V30 6 C 2.8299 0.6437 0.0 0
M  V30 7 C 0.5222 1.9797 0.0 0
M  V30 8 C 0.3886 0.753 0.0 0
M  V30 9 O -1.7975 0.6437 0.0 0
M  V30 10 C -1.7975 -2.0283 0.0 0
M  V30 11 C 0.5222 -3.3643 0.0 0 CFG=1
M  V30 12 C 2.8299 -2.0283 0.0 0
M  V30 13 C 3.595 1.9918 0.0 0
M  V30 14 C 3.595 -0.6801 0.0 0 CFG=2
M  V30 15 C 1.2874 3.3278 0.0 0
M  V30 16 C -1.0323 -3.3521 0.0 0 CFG=1
M  V30 17 C 0.9837 -4.8217 0.0 0
M  V30 18 C 2.8177 3.34 0.0 0
M  V30 19 C 5.1254 -0.668 0.0 0
M  V30 20 C -1.5181 -4.8096 0.0 0 CFG=1
M  V30 21 C -2.587 -3.3157 0.0 0
M  V30 22 C -0.2793 -5.7205 0.0 0
M  V30 23 O 3.5829 4.6881 0.0 0
M  V30 24 O -2.9999 -4.3481 0.0 0
M  V30 25 C -2.2955 -6.1335 0.0 0
M  V30 26 O -1.5303 -7.4573 0.0 0
M  V30 27 C -3.8501 -6.1213 0.0 0
M  V30 END ATOM
M  V30 BEGIN BOND
M  V30 1 1 2 1 CFG=1
M  V30 2 1 2 3
M  V30 3 1 2 4
M  V30 4 1 2 5
M  V30 5 1 3 6
M  V30 6 1 3 7
M  V30 7 1 3 8 CFG=3
M  V30 8 1 4 9 CFG=3
M  V30 9 1 4 10
M  V30 10 1 5 11
M  V30 11 1 5 12 CFG=1
M  V30 12 2 6 13
M  V30 13 1 6 14
M  V30 14 2 7 15
M  V30 15 1 10 16
M  V30 16 1 11 17 CFG=3
M  V30 17 1 13 18
M  V30 18 1 14 19 CFG=1
M  V30 19 1 16 20
M  V30 20 1 16 21 CFG=3
M  V30 21 1 17 22
M  V30 22 2 18 23
M  V30 23 1 20 24 CFG=1
M  V30 24 1 20 25
M  V30 25 2 25 26
M  V30 26 1 25 27
M  V30 27 1 11 16
M  V30 28 1 12 14
M  V30 29 1 15 18
M  V30 30 1 20 22
M  V30 END BOND
M  V30 BEGIN COLLECTION
M  V30 MDLV30/STEABS ATOMS=(8 2 3 4 5 11 14 16 20)
M  V30 END COLLECTION
M  V30 END CTAB
M  END
>  <Molecule Name>
CHEMBL1200600

>  <smiles_curated>
CC(=O)[C@@]1(O)CC[C@H]2[C@@H]3C[C@H](C)C4=CC(=O)C=C[C@]4(C)[C@@]3(F)[C@@H](O)C[C@@]21C

>  <pchembl_value>
5.5

>  <target_organism>
Homo sapiens

>  <standard_type>
EC50

>  <target_pref_name>
Pregnane X receptor

>  <assay_description>
Activation of human PXR expressed in human HepG2 (DPX-2) cells after 24 hrs by luciferase reporter gene based luminescent analysis,Activation of human PXR expressed in human HepG2 (DPX-2) cells assessed as induction of CYP3A4 after 24 hrs by luminescent analysis,Competitive binding affinity to human PXR LBD (111 to 434) by TR-FRET assay

>  <activity>
0

$$$$
CHEMBL4580320
Actelion Java MolfileCreator 2.0

  0  0  0  0  0  0              0 V3000
M  V30 BEGIN CTAB
M  V30 COUNTS 31 33 0 0 0
M  V30 BEGIN ATOM
M  V30 1 S 0.0 0.0 0.0 0
M  V30 2 O -1.5457 0.1703 0.0 0
M  V30 3 O 1.3631 0.2069 0.0 0
M  V30 4 C 0.146 1.5457 0.0 0
M  V30 5 C -0.1703 -1.5213 0.0 0
M  V30 6 C 1.5457 2.1907 0.0 0
M  V30 7 C -1.1197 2.4706 0.0 0
M  V30 8 C 1.3631 -1.5091 0.0 0
M  V30 9 C -1.6917 -1.1927 0.0 0
M  V30 10 C -0.0243 -3.0427 0.0 0
M  V30 11 C 1.6917 3.7364 0.0 0
M  V30 12 C -0.9736 4.0164 0.0 0
M  V30 13 C 2.1299 -2.8358 0.0 0
M  V30 14 C 2.1299 -0.1582 0.0 0
M  V30 15 C -2.4706 -2.5193 0.0 0
M  V30 16 C -1.4483 -3.6634 0.0 0
M  V30 17 C 0.4259 4.6614 0.0 0
M  V30 18 C 3.6634 -2.8236 0.0 0
M  V30 19 C 3.6634 -0.146 0.0 0
M  V30 20 F 0.572 6.2071 0.0 0
M  V30 21 C 4.4302 -1.4726 0.0 0
M  V30 22 C 5.9637 -1.4605 0.0 0
M  V30 23 N 5.9515 0.0973 0.0 0
M  V30 24 C 7.4972 -1.4483 0.0 0
M  V30 25 C 5.9515 -2.994 0.0 0
M  V30 26 F 9.0308 -1.4361 0.0 0
M  V30 27 F 7.4851 0.1095 0.0 0
M  V30 28 F 7.5946 -2.3368 0.0 0
M  V30 29 F 5.9394 -4.5275 0.0 0
M  V30 30 F 6.84 -3.0914 0.0 0
M  V30 31 F 4.4423 -3.3591 0.0 0
M  V30 END ATOM
M  V30 BEGIN BOND
M  V30 1 2 1 2
M  V30 2 2 1 3
M  V30 3 1 1 4
M  V30 4 1 1 5
M  V30 5 2 4 6
M  V30 6 1 4 7
M  V30 7 1 5 8
M  V30 8 1 5 9
M  V30 9 1 5 10
M  V30 10 1 6 11
M  V30 11 2 7 12
M  V30 12 2 8 13
M  V30 13 1 8 14
M  V30 14 1 9 15
M  V30 15 1 10 16
M  V30 16 2 11 17
M  V30 17 1 13 18
M  V30 18 2 14 19
M  V30 19 1 17 20
M  V30 20 2 18 21
M  V30 21 1 21 22
M  V30 22 1 22 23
M  V30 23 1 22 24
M  V30 24 1 22 25
M  V30 25 1 24 26
M  V30 26 1 24 27
M  V30 27 1 24 28
M  V30 28 1 25 29
M  V30 29 1 25 30
M  V30 30 1 25 31
M  V30 31 1 12 17
M  V30 32 1 15 16
M  V30 33 1 19 21
M  V30 END BOND
M  V30 END CTAB
M  END
>  <Molecule Name>
CHEMBL4580320

>  <smiles_curated>
NC(c1ccc(C2(S(=O)(=O)c3ccc(F)cc3)CCCC2)cc1)(C(F)(F)F)C(F)(F)F

>  <pchembl_value>
6.56

>  <target_organism>
Homo sapiens

>  <standard_type>
EC50

>  <target_pref_name>
Pregnane X receptor

>  <assay_description>
Transactivation of PXR in human HepG2 cells

>  <activity>
1

$$$$
CHEMBL514421
Actelion Java MolfileCreator 2.0

  0  0  0  0  0  0              0 V3000
M  V30 BEGIN CTAB
M  V30 COUNTS 28 31 0 0 0
M  V30 BEGIN ATOM
M  V30 1 Cl 0.0 0.0 0.0 0
M  V30 2 C -0.7515 1.3034 0.0 0
M  V30 3 C -0.0117 2.6068 0.0 0
M  V30 4 C -2.2545 1.3151 0.0 0
M  V30 5 C -0.7632 3.9102 0.0 0
M  V30 6 C 1.4678 2.6185 0.0 0
M  V30 7 C -3.006 2.6185 0.0 0
M  V30 8 C -2.2663 3.922 0.0 0
M  V30 9 S 2.2076 3.922 0.0 0
M  V30 10 O 0.9041 4.6735 0.0 0
M  V30 11 O 3.4875 3.1822 0.0 0
M  V30 12 N 2.9473 5.2254 0.0 0
M  V30 13 C 2.1958 6.5288 0.0 0
M  V30 14 C 0.6928 6.5406 0.0 0
M  V30 15 C 2.9356 7.8322 0.0 0
M  V30 16 C -0.0587 7.844 0.0 0
M  V30 17 C 2.1841 9.1357 0.0 0
M  V30 18 C 0.681 9.1474 0.0 0
M  V30 19 C -1.5265 8.161 0.0 0
M  V30 20 N -0.3287 10.263 0.0 0
M  V30 21 C -1.6909 9.6523 0.0 0
M  V30 22 C -0.0352 11.7308 0.0 0
M  V30 23 C -1.1507 12.7406 0.0 0
M  V30 24 C -0.8572 14.2085 0.0 0
M  V30 25 C -2.5833 12.2944 0.0 0
M  V30 26 C -1.9727 15.2183 0.0 0
M  V30 27 C -3.6989 13.3043 0.0 0
M  V30 28 C -3.4053 14.7721 0.0 0
M  V30 END ATOM
M  V30 BEGIN BOND
M  V30 1 1 1 2
M  V30 2 2 2 3
M  V30 3 1 2 4
M  V30 4 1 3 5
M  V30 5 1 3 6
M  V30 6 2 4 7
M  V30 7 2 5 8
M  V30 8 1 6 9
M  V30 9 2 9 10
M  V30 10 2 9 11
M  V30 11 1 9 12
M  V30 12 1 12 13
M  V30 13 2 13 14
M  V30 14 1 13 15
M  V30 15 1 14 16
M  V30 16 2 15 17
M  V30 17 2 16 18
M  V30 18 1 16 19
M  V30 19 1 18 20
M  V30 20 2 19 21
M  V30 21 1 20 22
M  V30 22 1 22 23
M  V30 23 2 23 24
M  V30 24 1 23 25
M  V30 25 1 24 26
M  V30 26 2 25 27
M  V30 27 2 26 28
M  V30 28 1 7 8
M  V30 29 1 17 18
M  V30 30 1 20 21
M  V30 31 1 27 28
M  V30 END BOND
M  V30 END CTAB
M  END
>  <Molecule Name>
CHEMBL514421

>  <smiles_curated>
O=S(=O)(Cc1ccccc1Cl)Nc1ccc2c(c1)ccn2Cc1ccccc1

>  <pchembl_value>
6.71

>  <target_organism>
Homo sapiens

>  <standard_type>
EC50

>  <target_pref_name>
Pregnane X receptor

>  <assay_description>
Agonist activity at human pregnane X receptor expressed in HGPXR reporter cells

>  <activity>
1

$$$$
CHEMBL457270
Actelion Java MolfileCreator 2.0

  0  0  0  0  0  0              0 V3000
M  V30 BEGIN CTAB
M  V30 COUNTS 30 34 0 0 0
M  V30 BEGIN ATOM
M  V30 1 S 0.0 0.0 0.0 0
M  V30 2 O -0.0117 -1.4844 0.0 0
M  V30 3 O -0.0117 1.508 0.0 0
M  V30 4 N -1.508 0.0117 0.0 0
M  V30 5 C 1.4844 0.0117 0.0 0
M  V30 6 C -2.262 1.3195 0.0 0
M  V30 7 C 2.2149 1.3195 0.0 0
M  V30 8 C 2.2149 -1.2724 0.0 0
M  V30 9 C -3.7701 1.3313 0.0 0
M  V30 10 C -1.5316 2.6273 0.0 0
M  V30 11 C 3.6994 1.3313 0.0 0
M  V30 12 C 1.4609 2.6273 0.0 0
M  V30 13 C 3.6994 -1.2606 0.0 0
M  V30 14 C -4.5241 2.639 0.0 0
M  V30 15 C -2.2856 3.935 0.0 0
M  V30 16 C 4.4299 0.0471 0.0 0
M  V30 17 C 4.4299 2.639 0.0 0
M  V30 18 C 2.1913 3.935 0.0 0
M  V30 19 N -5.9968 2.9572 0.0 0
M  V30 20 C -3.7936 3.9468 0.0 0
M  V30 21 C 3.6758 3.9468 0.0 0
M  V30 22 C -6.1618 4.4534 0.0 0
M  V30 23 N -4.8069 5.0661 0.0 0
M  V30 24 C -4.5123 6.5388 0.0 0
M  V30 25 C -5.6316 7.552 0.0 0
M  V30 26 C -5.337 9.0247 0.0 0
M  V30 27 C -7.069 7.1043 0.0 0
M  V30 28 C -6.4563 10.0379 0.0 0
M  V30 29 C -8.1882 8.1175 0.0 0
M  V30 30 C -7.8937 9.5902 0.0 0
M  V30 END ATOM
M  V30 BEGIN BOND
M  V30 1 2 1 2
M  V30 2 2 1 3
M  V30 3 1 1 4
M  V30 4 1 1 5
M  V30 5 1 4 6
M  V30 6 1 5 7
M  V30 7 2 5 8
M  V30 8 2 6 9
M  V30 9 1 6 10
M  V30 10 1 7 11
M  V30 11 2 7 12
M  V30 12 1 8 13
M  V30 13 1 9 14
M  V30 14 2 10 15
M  V30 15 1 11 16
M  V30 16 2 11 17
M  V30 17 1 12 18
M  V30 18 1 14 19
M  V30 19 2 14 20
M  V30 20 1 17 21
M  V30 21 2 19 22
M  V30 22 1 20 23
M  V30 23 1 23 24
M  V30 24 1 24 25
M  V30 25 2 25 26
M  V30 26 1 25 27
M  V30 27 1 26 28
M  V30 28 2 27 29
M  V30 29 2 28 30
M  V30 30 2 13 16
M  V30 31 1 15 20
M  V30 32 2 18 21
M  V30 33 1 22 23
M  V30 34 1 29 30
M  V30 END BOND
M  V30 END CTAB
M  END
>  <Molecule Name>
CHEMBL457270

>  <smiles_curated>
O=S(=O)(Nc1ccc2c(c1)ncn2Cc1ccccc1)c1cccc2ccccc12

>  <pchembl_value>
7.7

>  <target_organism>
Homo sapiens

>  <standard_type>
EC50

>  <target_pref_name>
Pregnane X receptor

>  <assay_description>
Agonist activity at human pregnane X receptor expressed in HGPXR reporter cells

>  <activity>
1

$$$$
CHEMBL522066
Actelion Java MolfileCreator 2.0

  0  0  0  0  0  0              0 V3000
M  V30 BEGIN CTAB
M  V30 COUNTS 30 34 0 0 0
M  V30 BEGIN ATOM
M  V30 1 Cl 0.0 0.0 0.0 0
M  V30 2 C 0.7437 1.3103 0.0 0
M  V30 3 C 2.2311 1.3221 0.0 0
M  V30 4 C -0.0118 2.6207 0.0 0
M  V30 5 C 2.9748 0.0354 0.0 0
M  V30 6 C 2.9748 2.6325 0.0 0
M  V30 7 C 0.7319 3.931 0.0 0
M  V30 8 N 2.3491 -1.3221 0.0 0
M  V30 9 N 4.4504 -0.1062 0.0 0
M  V30 10 C 2.2193 3.9428 0.0 0
M  V30 11 C -0.0236 5.2414 0.0 0
M  V30 12 N 3.447 -2.3137 0.0 0
M  V30 13 C 4.7456 -1.5582 0.0 0
M  V30 14 C 5.4421 1.0152 0.0 0
M  V30 15 C 0.7201 6.5517 0.0 0
M  V30 16 C -1.5346 5.2532 0.0 0
M  V30 17 C 6.1031 -2.1603 0.0 0
M  V30 18 C -0.0354 7.8621 0.0 0
M  V30 19 C -2.2901 6.5635 0.0 0
M  V30 20 C 6.7052 -0.7791 0.0 0
M  V30 21 C 5.4775 -3.5178 0.0 0
M  V30 22 C 7.4607 -2.7623 0.0 0
M  V30 23 N -1.5464 7.8739 0.0 0
M  V30 24 C 8.1808 -0.6138 0.0 0
M  V30 25 C 5.808 0.4485 0.0 0
M  V30 26 C 6.8351 -4.1199 0.0 0
M  V30 27 C 8.7829 0.7673 0.0 0
M  V30 28 C 6.4101 1.8297 0.0 0
M  V30 29 C 7.8857 1.995 0.0 0
M  V30 30 Cl 8.4878 3.3762 0.0 0
M  V30 END ATOM
M  V30 BEGIN BOND
M  V30 1 1 1 2
M  V30 2 2 2 3
M  V30 3 1 2 4
M  V30 4 1 3 5
M  V30 5 1 3 6
M  V30 6 2 4 7
M  V30 7 2 5 8
M  V30 8 1 5 9
M  V30 9 2 6 10
M  V30 10 1 7 11
M  V30 11 1 8 12
M  V30 12 1 9 13
M  V30 13 1 9 14
M  V30 14 2 11 15
M  V30 15 1 11 16
M  V30 16 1 13 17
M  V30 17 1 15 18
M  V30 18 2 16 19
M  V30 19 1 17 20
M  V30 20 1 17 21
M  V30 21 1 17 22
M  V30 22 2 18 23
M  V30 23 2 20 24
M  V30 24 1 20 25
M  V30 25 1 21 26
M  V30 26 1 24 27
M  V30 27 2 25 28
M  V30 28 2 27 29
M  V30 29 1 29 30
M  V30 30 1 7 10
M  V30 31 2 12 13
M  V30 32 1 19 23
M  V30 33 1 22 26
M  V30 34 1 28 29
M  V30 END BOND
M  V30 END CTAB
M  END
>  <Molecule Name>
CHEMBL522066

>  <smiles_curated>
Cn1c(-c2ccc(-c3ccncc3)cc2Cl)nnc1C1(c2ccc(Cl)cc2)CCC1

>  <pchembl_value>
5.11

>  <target_organism>
Homo sapiens

>  <standard_type>
EC50

>  <target_pref_name>
Pregnane X receptor

>  <assay_description>
Agonist activity at human PXR

>  <activity>
0

$$$$
CHEMBL1891684
Actelion Java MolfileCreator 2.0

  0  0  0  0  0  0              0 V3000
M  V30 BEGIN CTAB
M  V30 COUNTS 26 27 0 0 0
M  V30 BEGIN ATOM
M  V30 1 F 0.0 0.0 0.0 0
M  V30 2 C -0.7673 1.3307 0.0 0
M  V30 3 F -0.0119 2.6615 0.0 0
M  V30 4 O -2.3019 1.3427 0.0 0
M  V30 5 C -3.0692 2.6735 0.0 0
M  V30 6 C -4.6038 2.6855 0.0 0
M  V30 7 C -2.3138 4.0043 0.0 0
M  V30 8 C -5.3711 4.0163 0.0 0
M  V30 9 C -5.3711 1.3787 0.0 0
M  V30 10 C -3.0812 5.3351 0.0 0
M  V30 11 C -4.6158 5.3471 0.0 0
M  V30 12 C -4.6158 0.0719 0.0 0
M  V30 13 C -6.9057 1.3907 0.0 0
M  V30 14 C -5.3831 -1.2348 0.0 0
M  V30 15 C -3.1051 0.0839 0.0 0
M  V30 16 C -7.673 0.0839 0.0 0
M  V30 17 C -7.673 2.7215 0.0 0
M  V30 18 N -6.9177 -1.2228 0.0 0
M  V30 19 C -4.6277 -2.5416 0.0 0
M  V30 20 O -2.5536 0.6833 0.0 0
M  V30 21 O -2.3498 -1.2228 0.0 0
M  V30 22 C -9.2076 0.0959 0.0 0
M  V30 23 O -6.9177 4.0523 0.0 0
M  V30 24 O -9.2076 2.7335 0.0 0
M  V30 25 C -0.8392 -1.2108 0.0 0
M  V30 26 C -9.9749 4.0643 0.0 0
M  V30 END ATOM
M  V30 BEGIN BOND
M  V30 1 1 1 2
M  V30 2 1 2 3
M  V30 3 1 2 4
M  V30 4 1 4 5
M  V30 5 2 5 6
M  V30 6 1 5 7
M  V30 7 1 6 8
M  V30 8 1 6 9
M  V30 9 2 7 10
M  V30 10 2 8 11
M  V30 11 1 9 12
M  V30 12 1 9 13
M  V30 13 2 12 14
M  V30 14 1 12 15
M  V30 15 2 13 16
M  V30 16 1 13 17
M  V30 17 1 14 18
M  V30 18 1 14 19
M  V30 19 2 15 20
M  V30 20 1 15 21
M  V30 21 1 16 22
M  V30 22 2 17 23
M  V30 23 1 17 24
M  V30 24 1 21 25
M  V30 25 1 24 26
M  V30 26 1 10 11
M  V30 27 1 16 18
M  V30 END BOND
M  V30 END CTAB
M  END
>  <Molecule Name>
CHEMBL1891684

>  <smiles_curated>
COC(=O)C1=C(C)NC(C)=C(C(=O)OC)C1c1ccccc1OC(F)F

>  <pchembl_value>
5.4

>  <target_organism>
Homo sapiens

>  <standard_type>
EC50

>  <target_pref_name>
Pregnane X receptor

>  <assay_description>
Activation of human PXR expressed in human HepG2 (DPX-2) cells after 24 hrs by luciferase reporter gene based luminescent analysis,Activation of human PXR expressed in human HepG2 (DPX-2) cells assessed as induction of CYP3A4 after 24 hrs by luminescent analysis,Competitive binding affinity to human PXR LBD (111 to 434) by TR-FRET assay

>  <activity>
0

$$$$
CHEMBL4591380
Actelion Java MolfileCreator 2.0

  0  0  0  0  0  0              0 V3000
M  V30 BEGIN CTAB
M  V30 COUNTS 31 33 0 0 0
M  V30 BEGIN ATOM
M  V30 1 S 0.0 0.0 0.0 0
M  V30 2 O -1.1837 -0.7247 0.0 0
M  V30 3 O 1.4494 0.4831 0.0 0
M  V30 4 C 0.4589 -1.4494 0.0 0
M  V30 5 C -0.4831 1.4736 0.0 0
M  V30 6 C 1.9567 -1.7635 0.0 0
M  V30 7 C -0.5797 -2.5848 0.0 0
M  V30 8 C -1.9084 0.8575 0.0 0
M  V30 9 C -1.2682 2.8264 0.0 0
M  V30 10 C 1.0146 1.8118 0.0 0
M  V30 11 C 2.4157 -3.2129 0.0 0
M  V30 12 C -0.1207 -4.0343 0.0 0
M  V30 13 C -3.1646 1.7755 0.0 0
M  V30 14 C -2.0775 -0.6643 0.0 0
M  V30 15 C -0.2536 3.986 0.0 0
M  V30 16 C 1.1595 3.3579 0.0 0
M  V30 17 C 1.3769 -4.3483 0.0 0
M  V30 18 C -4.5899 1.1595 0.0 0
M  V30 19 C -3.5028 -1.2803 0.0 0
M  V30 20 F 1.8359 -5.7978 0.0 0
M  V30 21 C -4.759 -0.3623 0.0 0
M  V30 22 C -6.1843 -0.9783 0.0 0
M  V30 23 O -5.5683 -2.3795 0.0 0
M  V30 24 C -7.6096 -1.5944 0.0 0
M  V30 25 C -6.8245 0.4469 0.0 0
M  V30 26 F -9.0349 -2.2104 0.0 0
M  V30 27 F -6.9936 -2.9955 0.0 0
M  V30 28 F -8.0928 -0.7972 0.0 0
M  V30 29 F -7.4647 1.8722 0.0 0
M  V30 30 F -7.7063 0.1932 0.0 0
M  V30 31 F -5.6166 1.4132 0.0 0
M  V30 END ATOM
M  V30 BEGIN BOND
M  V30 1 2 1 2
M  V30 2 2 1 3
M  V30 3 1 1 4
M  V30 4 1 1 5
M  V30 5 2 4 6
M  V30 6 1 4 7
M  V30 7 1 5 8
M  V30 8 1 5 9
M  V30 9 1 5 10
M  V30 10 1 6 11
M  V30 11 2 7 12
M  V30 12 2 8 13
M  V30 13 1 8 14
M  V30 14 1 9 15
M  V30 15 1 10 16
M  V30 16 2 11 17
M  V30 17 1 13 18
M  V30 18 2 14 19
M  V30 19 1 17 20
M  V30 20 2 18 21
M  V30 21 1 21 22
M  V30 22 1 22 23
M  V30 23 1 22 24
M  V30 24 1 22 25
M  V30 25 1 24 26
M  V30 26 1 24 27
M  V30 27 1 24 28
M  V30 28 1 25 29
M  V30 29 1 25 30
M  V30 30 1 25 31
M  V30 31 1 12 17
M  V30 32 1 15 16
M  V30 33 1 19 21
M  V30 END BOND
M  V30 END CTAB
M  END
>  <Molecule Name>
CHEMBL4591380

>  <smiles_curated>
O=S(=O)(c1ccc(F)cc1)C1(c2ccc(C(O)(C(F)(F)F)C(F)(F)F)cc2)CCCC1

>  <pchembl_value>
8.0

>  <target_organism>
Homo sapiens

>  <standard_type>
EC50

>  <target_pref_name>
Pregnane X receptor

>  <assay_description>
Transactivation of PXR in human HepG2 cells

>  <activity>
1

$$$$
CHEMBL37161
Actelion Java MolfileCreator 2.0

  0  0  0  0  0  0              0 V3000
M  V30 BEGIN CTAB
M  V30 COUNTS 21 23 0 0 0
M  V30 BEGIN ATOM
M  V30 1 S 0.0 0.0 0.0 0
M  V30 2 C 0.7458 -1.2904 0.0 0
M  V30 3 C 0.7458 1.3141 0.0 0
M  V30 4 C -0.0118 -2.5809 0.0 0
M  V30 5 C 2.2376 -1.2786 0.0 0
M  V30 6 C 2.2376 1.3259 0.0 0
M  V30 7 C -0.0118 2.6283 0.0 0
M  V30 8 C 0.734 -3.8714 0.0 0
M  V30 9 C 2.9834 -2.5691 0.0 0
M  V30 10 C 2.9834 2.6401 0.0 0
M  V30 11 C 0.734 3.9424 0.0 0
M  V30 12 N 0.2604 -5.2921 0.0 0
M  V30 13 C 2.2257 -3.8595 0.0 0
M  V30 14 C 2.2257 3.9542 0.0 0
M  V30 15 C 1.468 -6.1682 0.0 0
M  V30 16 N 2.6756 -5.2802 0.0 0
M  V30 17 N 1.4562 -7.6599 0.0 0
M  V30 18 C 0.142 -8.4058 0.0 0
M  V30 19 O -1.172 -7.6481 0.0 0
M  V30 20 O 0.1302 -9.8975 0.0 0
M  V30 21 C -1.1839 -10.6434 0.0 0
M  V30 END ATOM
M  V30 BEGIN BOND
M  V30 1 1 1 2
M  V30 2 1 1 3
M  V30 3 2 2 4
M  V30 4 1 2 5
M  V30 5 2 3 6
M  V30 6 1 3 7
M  V30 7 1 4 8
M  V30 8 2 5 9
M  V30 9 1 6 10
M  V30 10 2 7 11
M  V30 11 1 8 12
M  V30 12 2 8 13
M  V30 13 2 10 14
M  V30 14 1 12 15
M  V30 15 1 13 16
M  V30 16 1 15 17
M  V30 17 1 17 18
M  V30 18 2 18 19
M  V30 19 1 18 20
M  V30 20 1 20 21
M  V30 21 1 9 13
M  V30 22 1 11 14
M  V30 23 2 15 16
M  V30 END BOND
M  V30 END CTAB
M  END
>  <Molecule Name>
CHEMBL37161

>  <smiles_curated>
COC(=O)Nc1nc2ccc(Sc3ccccc3)cc2[nH]1

>  <pchembl_value>
5.0

>  <target_organism>
Homo sapiens

>  <standard_type>
EC50

>  <target_pref_name>
Pregnane X receptor

>  <assay_description>
Activation of human PXR expressed in human HepG2 (DPX-2) cells after 24 hrs by luciferase reporter gene based luminescent analysis

>  <activity>
0

$$$$
CHEMBL4206412
Actelion Java MolfileCreator 2.0

  0  0  0  0  0  0              0 V3000
M  V30 BEGIN CTAB
M  V30 COUNTS 32 34 0 0 0
M  V30 BEGIN ATOM
M  V30 1 S 0.0 0.0 0.0 0
M  V30 2 O -0.012 1.5475 0.0 0
M  V30 3 O -0.012 -1.5233 0.0 0
M  V30 4 N -1.5475 0.012 0.0 0
M  V30 5 C 1.5233 0.012 0.0 0
M  V30 6 C -2.3212 1.354 0.0 0
M  V30 7 C -2.3212 -1.3057 0.0 0
M  V30 8 C 2.2728 -1.3057 0.0 0
M  V30 9 C 2.2728 1.354 0.0 0
M  V30 10 C -3.8687 1.3661 0.0 0
M  V30 11 C -1.5716 2.696 0.0 0
M  V30 12 C -3.8687 -1.2936 0.0 0
M  V30 13 C 3.7962 -1.2936 0.0 0
M  V30 14 C 3.7962 1.3661 0.0 0
M  V30 15 C -4.6425 2.7081 0.0 0
M  V30 16 C -4.6425 0.0483 0.0 0
M  V30 17 C -2.3454 4.038 0.0 0
M  V30 18 C 4.5457 0.0483 0.0 0
M  V30 19 C -3.8929 4.0501 0.0 0
M  V30 20 C -5.8273 1.0518 0.0 0
M  V30 21 C -5.8273 -0.9309 0.0 0
M  V30 22 F 6.0691 0.0604 0.0 0
M  V30 23 C -4.6666 5.392 0.0 0
M  V30 24 O -6.0086 4.6425 0.0 0
M  V30 25 C -5.4404 6.734 0.0 0
M  V30 26 C -3.3488 6.1658 0.0 0
M  V30 27 F -6.2141 8.076 0.0 0
M  V30 28 F -6.7824 5.9844 0.0 0
M  V30 29 F -4.7271 7.2901 0.0 0
M  V30 30 F -2.031 6.9516 0.0 0
M  V30 31 F -3.7115 7.0121 0.0 0
M  V30 32 F -2.297 5.0777 0.0 0
M  V30 END ATOM
M  V30 BEGIN BOND
M  V30 1 2 1 2
M  V30 2 2 1 3
M  V30 3 1 1 4
M  V30 4 1 1 5
M  V30 5 1 4 6
M  V30 6 1 4 7
M  V30 7 2 5 8
M  V30 8 1 5 9
M  V30 9 2 6 10
M  V30 10 1 6 11
M  V30 11 1 7 12
M  V30 12 1 8 13
M  V30 13 2 9 14
M  V30 14 1 10 15
M  V30 15 1 10 16
M  V30 16 2 11 17
M  V30 17 2 13 18
M  V30 18 2 15 19
M  V30 19 1 16 20
M  V30 20 1 16 21
M  V30 21 1 18 22
M  V30 22 1 19 23
M  V30 23 1 23 24
M  V30 24 1 23 25
M  V30 25 1 23 26
M  V30 26 1 25 27
M  V30 27 1 25 28
M  V30 28 1 25 29
M  V30 29 1 26 30
M  V30 30 1 26 31
M  V30 31 1 26 32
M  V30 32 1 12 16
M  V30 33 1 14 18
M  V30 34 1 17 19
M  V30 END BOND
M  V30 END CTAB
M  END
>  <Molecule Name>
CHEMBL4206412

>  <smiles_curated>
CC1(C)CCN(S(=O)(=O)c2ccc(F)cc2)c2ccc(C(O)(C(F)(F)F)C(F)(F)F)cc21

>  <pchembl_value>
7.44

>  <target_organism>
Homo sapiens

>  <standard_type>
EC50

>  <target_pref_name>
Pregnane X receptor

>  <assay_description>
Transactivation of PXR in human HepG2 cells by receptor transactivation assay

>  <activity>
1

$$$$
CHEMBL4465140
Actelion Java MolfileCreator 2.0

  0  0  0  0  0  0              0 V3000
M  V30 BEGIN CTAB
M  V30 COUNTS 31 32 0 0 0
M  V30 BEGIN ATOM
M  V30 1 O 0.0 0.0 0.0 0
M  V30 2 C 1.3931 0.5194 0.0 0
M  V30 3 O 2.5266 -0.4368 0.0 0
M  V30 4 C 1.6411 2.0071 0.0 0
M  V30 5 C 0.484 2.987 0.0 0
M  V30 6 C 3.0342 2.5266 0.0 0
M  V30 7 C -0.9327 2.4911 0.0 0
M  V30 8 C -2.0897 3.4711 0.0 0
M  V30 9 C -3.5065 2.9752 0.0 0 CFG=2
M  V30 10 C -4.6635 3.9552 0.0 0
M  V30 11 C -3.7781 1.5112 0.0 0
M  V30 12 C -4.4156 5.4428 0.0 0
M  V30 13 C -5.5727 6.4227 0.0 0
M  V30 14 C -5.3247 7.9104 0.0 0 CFG=2
M  V30 15 C -6.4818 8.8903 0.0 0
M  V30 16 C -3.9315 8.4298 0.0 0
M  V30 17 C -7.8985 8.3944 0.0 0
M  V30 18 C -9.0556 9.3744 0.0 0
M  V30 19 C -10.4724 8.8785 0.0 0 CFG=1
M  V30 20 O -9.7286 7.5916 0.0 0
M  V30 21 C -11.9836 8.8903 0.0 0
M  V30 22 C -10.7439 10.3661 0.0 0
M  V30 23 C -10.4842 6.3047 0.0 0
M  V30 24 C -12.7392 7.6034 0.0 0
M  V30 25 C -11.9954 6.3165 0.0 0
M  V30 26 C -9.7404 5.0177 0.0 0
M  V30 27 C -12.751 5.0296 0.0 0
M  V30 28 C -10.496 3.7308 0.0 0
M  V30 29 C -8.2527 5.0296 0.0 0
M  V30 30 C -12.0072 3.7426 0.0 0
M  V30 31 O -12.7629 2.4557 0.0 0
M  V30 END ATOM
M  V30 BEGIN BOND
M  V30 1 2 1 2
M  V30 2 1 2 3
M  V30 3 1 2 4
M  V30 4 1 4 5
M  V30 5 1 4 6
M  V30 6 1 5 7
M  V30 7 1 7 8
M  V30 8 1 8 9
M  V30 9 1 9 10
M  V30 10 1 9 11 CFG=1
M  V30 11 1 10 12
M  V30 12 1 12 13
M  V30 13 1 13 14
M  V30 14 1 14 15
M  V30 15 1 14 16 CFG=3
M  V30 16 1 15 17
M  V30 17 1 17 18
M  V30 18 1 18 19
M  V30 19 1 19 20
M  V30 20 1 19 21
M  V30 21 1 19 22 CFG=3
M  V30 22 1 20 23
M  V30 23 1 21 24
M  V30 24 2 23 25
M  V30 25 1 23 26
M  V30 26 1 25 27
M  V30 27 2 26 28
M  V30 28 1 26 29
M  V30 29 2 27 30
M  V30 30 1 30 31
M  V30 31 1 24 25
M  V30 32 1 28 30
M  V30 END BOND
M  V30 BEGIN COLLECTION
M  V30 MDLV30/STEABS ATOMS=(3 9 14 19)
M  V30 END COLLECTION
M  V30 END CTAB
M  END
>  <Molecule Name>
CHEMBL4465140

>  <smiles_curated>
Cc1cc(O)cc2c1O[C@](C)(CCC[C@H](C)CCC[C@H](C)CCCC(C)C(=O)O)CC2

>  <pchembl_value>
5.52

>  <target_organism>
Homo sapiens

>  <standard_type>
EC50

>  <target_pref_name>
Pregnane X receptor

>  <assay_description>
Agonist activity at His-tagged PXR-LBD/SRC-1p (unknown origin) expressed in Escherichia coli BL21(DE3) by coactivator recruitment based Alpha-screen assay

>  <activity>
0

$$$$
CHEMBL517474
Actelion Java MolfileCreator 2.0

  0  0  0  0  0  0              0 V3000
M  V30 BEGIN CTAB
M  V30 COUNTS 27 30 0 0 0
M  V30 BEGIN ATOM
M  V30 1 S 0.0 0.0 0.0 0
M  V30 2 O -1.3063 0.7532 0.0 0
M  V30 3 O 1.2828 -0.7414 0.0 0
M  V30 4 N 0.7414 1.3063 0.0 0
M  V30 5 C -0.7532 -1.2828 0.0 0
M  V30 6 C -0.0117 2.6126 0.0 0
M  V30 7 C -0.0117 -2.5656 0.0 0
M  V30 8 C -2.2596 -1.271 0.0 0
M  V30 9 C -1.5181 2.6244 0.0 0
M  V30 10 C 0.7296 3.919 0.0 0
M  V30 11 C -0.7649 -3.8484 0.0 0
M  V30 12 C 1.4711 -2.5538 0.0 0
M  V30 13 C -3.0128 -2.5538 0.0 0
M  V30 14 C -2.2713 3.9307 0.0 0
M  V30 15 C -0.0235 5.2253 0.0 0
M  V30 16 C -2.2713 -3.8366 0.0 0
M  V30 17 N -3.7424 4.2485 0.0 0
M  V30 18 C -1.5299 5.2371 0.0 0
M  V30 19 C -3.9072 5.7431 0.0 0
M  V30 20 N -2.542 6.3551 0.0 0
M  V30 21 C -2.2478 7.8262 0.0 0
M  V30 22 C -3.3658 8.8383 0.0 0
M  V30 23 C -3.0716 10.3094 0.0 0
M  V30 24 C -4.8016 8.3911 0.0 0
M  V30 25 C -4.1896 11.3216 0.0 0
M  V30 26 C -5.9197 9.4032 0.0 0
M  V30 27 C -5.6254 10.8743 0.0 0
M  V30 END ATOM
M  V30 BEGIN BOND
M  V30 1 2 1 2
M  V30 2 2 1 3
M  V30 3 1 1 4
M  V30 4 1 1 5
M  V30 5 1 4 6
M  V30 6 2 5 7
M  V30 7 1 5 8
M  V30 8 2 6 9
M  V30 9 1 6 10
M  V30 10 1 7 11
M  V30 11 1 7 12
M  V30 12 2 8 13
M  V30 13 1 9 14
M  V30 14 2 10 15
M  V30 15 2 11 16
M  V30 16 1 14 17
M  V30 17 2 14 18
M  V30 18 2 17 19
M  V30 19 1 18 20
M  V30 20 1 20 21
M  V30 21 1 21 22
M  V30 22 2 22 23
M  V30 23 1 22 24
M  V30 24 1 23 25
M  V30 25 2 24 26
M  V30 26 2 25 27
M  V30 27 1 13 16
M  V30 28 1 15 18
M  V30 29 1 19 20
M  V30 30 1 26 27
M  V30 END BOND
M  V30 END CTAB
M  END
>  <Molecule Name>
CHEMBL517474

>  <smiles_curated>
Cc1ccccc1S(=O)(=O)Nc1ccc2c(c1)ncn2Cc1ccccc1

>  <pchembl_value>
7.35

>  <target_organism>
Homo sapiens

>  <standard_type>
EC50

>  <target_pref_name>
Pregnane X receptor

>  <assay_description>
Agonist activity at human pregnane X receptor expressed in HGPXR reporter cells

>  <activity>
1

$$$$
CHEMBL1201065
Actelion Java MolfileCreator 2.0

  0  0  0  0  0  0              0 V3000
M  V30 BEGIN CTAB
M  V30 COUNTS 17 17 0 0 0
M  V30 BEGIN ATOM
M  V30 1 S 0.0 0.0 0.0 0 CHG=-1 VAL=2
M  V30 2 C 1.4966 0.0118 0.0 0
M  V30 3 N 2.2449 -1.2828 0.0 0
M  V30 4 N 2.2449 1.3303 0.0 0
M  V30 5 C 3.7415 -1.2709 0.0 0
M  V30 6 C 3.7415 1.3421 0.0 0
M  V30 7 O 4.4898 -2.5656 0.0 0
M  V30 8 C 4.4898 0.0475 0.0 0
M  V30 9 O 4.4898 2.6606 0.0 0
M  V30 10 C 5.63 -0.9145 0.0 0
M  V30 11 C 5.63 1.0333 0.0 0
M  V30 12 C 7.0316 -0.3919 0.0 0
M  V30 13 C 5.3568 -2.3874 0.0 0
M  V30 14 C 7.0316 0.5345 0.0 0
M  V30 15 C 8.1719 -1.354 0.0 0
M  V30 16 C 8.1719 1.5203 0.0 0
M  V30 17 C 9.5735 -0.8314 0.0 0
M  V30 END ATOM
M  V30 BEGIN BOND
M  V30 1 1 1 2
M  V30 2 2 2 3
M  V30 3 1 2 4
M  V30 4 1 3 5
M  V30 5 1 4 6
M  V30 6 2 5 7
M  V30 7 1 5 8
M  V30 8 2 6 9
M  V30 9 1 8 10
M  V30 10 1 8 11
M  V30 11 1 10 12
M  V30 12 1 10 13
M  V30 13 1 11 14
M  V30 14 1 12 15
M  V30 15 2 14 16
M  V30 16 1 15 17
M  V30 17 1 6 8
M  V30 END BOND
M  V30 END CTAB
M  END
>  <Molecule Name>
CHEMBL1201065

>  <smiles_curated>
C=CCC1(C(C)CCC)C(=O)N=C([S-])NC1=O

>  <pchembl_value>
5.19

>  <target_organism>
Homo sapiens

>  <standard_type>
EC50

>  <target_pref_name>
Pregnane X receptor

>  <assay_description>
Activation of human PXR expressed in human HepG2 (DPX-2) cells after 24 hrs by luciferase reporter gene based luminescent analysis,Activation of human PXR expressed in human HepG2 (DPX-2) cells assessed as induction of CYP3A4 after 24 hrs by luminescent analysis,Competitive binding affinity to human PXR LBD (111 to 434) by TR-FRET assay

>  <activity>
0

$$$$
CHEMBL458775
Actelion Java MolfileCreator 2.0

  0  0  0  0  0  0              0 V3000
M  V30 BEGIN CTAB
M  V30 COUNTS 32 36 0 0 0
M  V30 BEGIN ATOM
M  V30 1 S 0.0 0.0 0.0 0
M  V30 2 O -1.3074 0.7538 0.0 0
M  V30 3 O 1.2838 -0.742 0.0 0
M  V30 4 N 0.742 1.3074 0.0 0
M  V30 5 C -0.7538 -1.2838 0.0 0
M  V30 6 C -0.0117 2.6148 0.0 0
M  V30 7 C -2.2614 -1.272 0.0 0
M  V30 8 C -0.0117 -2.5676 0.0 0
M  V30 9 C -1.5194 2.6265 0.0 0
M  V30 10 C 0.7302 3.9222 0.0 0
M  V30 11 C -3.0152 -2.5559 0.0 0
M  V30 12 C -0.7655 -3.8515 0.0 0
M  V30 13 C -2.2732 3.9339 0.0 0
M  V30 14 C -0.0235 5.2296 0.0 0
M  V30 15 C -2.2732 -3.8397 0.0 0
M  V30 16 N -3.7455 4.252 0.0 0
M  V30 17 C -1.5311 5.2413 0.0 0
M  V30 18 C -3.027 -5.1236 0.0 0
M  V30 19 C -3.9104 5.7478 0.0 0
M  V30 20 N -2.5441 6.3603 0.0 0
M  V30 21 C -4.5346 -5.1118 0.0 0
M  V30 22 C -2.285 -6.4074 0.0 0
M  V30 23 C -2.2496 7.8326 0.0 0
M  V30 24 C -5.2885 -6.3956 0.0 0
M  V30 25 C -3.0388 -7.6912 0.0 0
M  V30 26 C -3.3686 8.8455 0.0 0
M  V30 27 C -4.5464 -7.6795 0.0 0
M  V30 28 C -3.0741 10.3178 0.0 0
M  V30 29 C -4.8055 8.398 0.0 0
M  V30 30 C -4.1931 11.3308 0.0 0
M  V30 31 C -5.9245 9.4109 0.0 0
M  V30 32 C -5.63 10.8832 0.0 0
M  V30 END ATOM
M  V30 BEGIN BOND
M  V30 1 2 1 2
M  V30 2 2 1 3
M  V30 3 1 1 4
M  V30 4 1 1 5
M  V30 5 1 4 6
M  V30 6 2 5 7
M  V30 7 1 5 8
M  V30 8 2 6 9
M  V30 9 1 6 10
M  V30 10 1 7 11
M  V30 11 2 8 12
M  V30 12 1 9 13
M  V30 13 2 10 14
M  V30 14 2 11 15
M  V30 15 1 13 16
M  V30 16 2 13 17
M  V30 17 1 15 18
M  V30 18 2 16 19
M  V30 19 1 17 20
M  V30 20 2 18 21
M  V30 21 1 18 22
M  V30 22 1 20 23
M  V30 23 1 21 24
M  V30 24 2 22 25
M  V30 25 1 23 26
M  V30 26 2 24 27
M  V30 27 2 26 28
M  V30 28 1 26 29
M  V30 29 1 28 30
M  V30 30 2 29 31
M  V30 31 2 30 32
M  V30 32 1 12 15
M  V30 33 1 14 17
M  V30 34 1 19 20
M  V30 35 1 25 27
M  V30 36 1 31 32
M  V30 END BOND
M  V30 END CTAB
M  END
>  <Molecule Name>
CHEMBL458775

>  <smiles_curated>
O=S(=O)(Nc1ccc2c(c1)ncn2Cc1ccccc1)c1ccc(-c2ccccc2)cc1

>  <pchembl_value>
6.41

>  <target_organism>
Homo sapiens

>  <standard_type>
EC50

>  <target_pref_name>
Pregnane X receptor

>  <assay_description>
Agonist activity at human pregnane X receptor expressed in HGPXR reporter cells

>  <activity>
1

$$$$
CHEMBL1726
Actelion Java MolfileCreator 2.0

  0  0  0  0  0  0              0 V3000
M  V30 BEGIN CTAB
M  V30 COUNTS 28 29 0 0 0
M  V30 BEGIN ATOM
M  V30 1 O 0.0 0.0 0.0 0
M  V30 2 N 0.4073 1.4737 0.0 0 CHG=1
M  V30 3 O 1.9171 1.4857 0.0 0 CHG=-1
M  V30 4 C -0.3594 2.8037 0.0 0
M  V30 5 C -1.8931 2.8157 0.0 0
M  V30 6 C 0.3954 4.1337 0.0 0
M  V30 7 C -2.66 4.1457 0.0 0
M  V30 8 C -2.66 1.5097 0.0 0 CFG=2
M  V30 9 C -0.3714 5.4637 0.0 0
M  V30 10 C -1.9051 5.4757 0.0 0
M  V30 11 C -4.1936 1.5217 0.0 0
M  V30 12 C -1.9051 0.2036 0.0 0
M  V30 13 C -4.9605 0.2156 0.0 0
M  V30 14 C -4.9605 2.8517 0.0 0
M  V30 15 C -2.6719 -1.1023 0.0 0
M  V30 16 C -0.3954 0.2156 0.0 0
M  V30 17 N -4.2056 -1.0903 0.0 0
M  V30 18 C -6.4942 0.2276 0.0 0
M  V30 19 O -4.2056 4.1817 0.0 0
M  V30 20 O -6.4942 2.8636 0.0 0
M  V30 21 C -1.9171 -2.4083 0.0 0
M  V30 22 O 0.1557 0.8147 0.0 0
M  V30 23 O 0.3594 -1.0903 0.0 0
M  V30 24 C -7.261 4.1936 0.0 0
M  V30 25 C 1.8691 -1.0783 0.0 0
M  V30 26 C -8.7947 4.2056 0.0 0
M  V30 27 C -9.5616 5.5356 0.0 0
M  V30 28 C -9.5616 2.8996 0.0 0
M  V30 END ATOM
M  V30 BEGIN BOND
M  V30 1 2 1 2
M  V30 2 1 2 3
M  V30 3 1 2 4
M  V30 4 2 4 5
M  V30 5 1 4 6
M  V30 6 1 5 7
M  V30 7 1 8 5 CFG=1
M  V30 8 2 6 9
M  V30 9 2 7 10
M  V30 10 1 8 11
M  V30 11 1 8 12
M  V30 12 2 11 13
M  V30 13 1 11 14
M  V30 14 2 12 15
M  V30 15 1 12 16
M  V30 16 1 13 17
M  V30 17 1 13 18
M  V30 18 2 14 19
M  V30 19 1 14 20
M  V30 20 1 15 21
M  V30 21 2 16 22
M  V30 22 1 16 23
M  V30 23 1 20 24
M  V30 24 1 23 25
M  V30 25 1 24 26
M  V30 26 1 26 27
M  V30 27 1 26 28
M  V30 28 1 9 10
M  V30 29 1 15 17
M  V30 END BOND
M  V30 BEGIN COLLECTION
M  V30 MDLV30/STERAC1 ATOMS=(1 8)
M  V30 END COLLECTION
M  V30 END CTAB
M  END
>  <Molecule Name>
CHEMBL1726

>  <smiles_curated>
COC(=O)C1=C(C)NC(C)=C(C(=O)OCC(C)C)C1c1ccccc1[N+](=O)[O-]

>  <pchembl_value>
5.0

>  <target_organism>
Homo sapiens

>  <standard_type>
EC50

>  <target_pref_name>
Pregnane X receptor

>  <assay_description>
Activation of human PXR expressed in human HepG2 (DPX-2) cells after 24 hrs by luciferase reporter gene based luminescent analysis,Activation of human PXR expressed in human HepG2 (DPX-2) cells assessed as induction of CYP3A4 after 24 hrs by luminescent analysis,Competitive binding affinity to human PXR LBD (111 to 434) by TR-FRET assay

>  <activity>
0

$$$$
CHEMBL457277
Actelion Java MolfileCreator 2.0

  0  0  0  0  0  0              0 V3000
M  V30 BEGIN CTAB
M  V30 COUNTS 29 32 0 0 0
M  V30 BEGIN ATOM
M  V30 1 S 0.0 0.0 0.0 0
M  V30 2 O -1.3067 0.7534 0.0 0
M  V30 3 O 1.2832 -0.7416 0.0 0
M  V30 4 N 0.7416 1.3067 0.0 0
M  V30 5 C -0.7534 -1.2832 0.0 0
M  V30 6 C -0.0117 2.6135 0.0 0
M  V30 7 C -0.0117 -2.5664 0.0 0
M  V30 8 C -2.2603 -1.2714 0.0 0
M  V30 9 C -1.5186 2.6253 0.0 0
M  V30 10 C 0.7299 3.9203 0.0 0
M  V30 11 N 1.4716 -2.5546 0.0 0 CHG=1
M  V30 12 C -0.7652 -3.8497 0.0 0
M  V30 13 C -3.0138 -2.5546 0.0 0
M  V30 14 C -2.2721 3.9321 0.0 0
M  V30 15 C -0.0235 5.2271 0.0 0
M  V30 16 O 2.2132 -1.2479 0.0 0
M  V30 17 O 2.2132 -3.8379 0.0 0 CHG=-1
M  V30 18 C -2.2721 -3.8379 0.0 0
M  V30 19 N -3.7437 4.2499 0.0 0
M  V30 20 C -1.5304 5.2388 0.0 0
M  V30 21 C -3.9085 5.7451 0.0 0
M  V30 22 N -2.5429 6.3573 0.0 0
M  V30 23 C -2.2486 7.8289 0.0 0
M  V30 24 C -3.367 8.8413 0.0 0
M  V30 25 C -3.0727 10.3129 0.0 0
M  V30 26 C -4.8033 8.394 0.0 0
M  V30 27 C -4.1911 11.3254 0.0 0
M  V30 28 C -5.9217 9.4064 0.0 0
M  V30 29 C -5.6274 10.878 0.0 0
M  V30 END ATOM
M  V30 BEGIN BOND
M  V30 1 2 1 2
M  V30 2 2 1 3
M  V30 3 1 1 4
M  V30 4 1 1 5
M  V30 5 1 4 6
M  V30 6 2 5 7
M  V30 7 1 5 8
M  V30 8 2 6 9
M  V30 9 1 6 10
M  V30 10 1 7 11
M  V30 11 1 7 12
M  V30 12 2 8 13
M  V30 13 1 9 14
M  V30 14 2 10 15
M  V30 15 2 11 16
M  V30 16 1 11 17
M  V30 17 2 12 18
M  V30 18 1 14 19
M  V30 19 2 14 20
M  V30 20 2 19 21
M  V30 21 1 20 22
M  V30 22 1 22 23
M  V30 23 1 23 24
M  V30 24 2 24 25
M  V30 25 1 24 26
M  V30 26 1 25 27
M  V30 27 2 26 28
M  V30 28 2 27 29
M  V30 29 1 13 18
M  V30 30 1 15 20
M  V30 31 1 21 22
M  V30 32 1 28 29
M  V30 END BOND
M  V30 END CTAB
M  END
>  <Molecule Name>
CHEMBL457277

>  <smiles_curated>
O=[N+]([O-])c1ccccc1S(=O)(=O)Nc1ccc2c(c1)ncn2Cc1ccccc1

>  <pchembl_value>
6.57

>  <target_organism>
Homo sapiens

>  <standard_type>
EC50

>  <target_pref_name>
Pregnane X receptor

>  <assay_description>
Agonist activity at human pregnane X receptor expressed in HGPXR reporter cells

>  <activity>
1

$$$$
CHEMBL457272
Actelion Java MolfileCreator 2.0

  0  0  0  0  0  0              0 V3000
M  V30 BEGIN CTAB
M  V30 COUNTS 30 33 0 0 0
M  V30 BEGIN ATOM
M  V30 1 S 0.0 0.0 0.0 0
M  V30 2 O -1.3055 0.7527 0.0 0
M  V30 3 O 1.282 -0.741 0.0 0
M  V30 4 N 0.741 1.3055 0.0 0
M  V30 5 C -0.7527 -1.282 0.0 0
M  V30 6 C -0.0117 2.6111 0.0 0
M  V30 7 C -2.2583 -1.2703 0.0 0
M  V30 8 C -1.5173 2.6229 0.0 0
M  V30 9 C 0.7292 3.9167 0.0 0
M  V30 10 C -3.0111 -2.5523 0.0 0
M  V30 11 C -3.0111 0.0352 0.0 0
M  V30 12 C -2.27 3.9285 0.0 0
M  V30 13 C -0.0235 5.2223 0.0 0
M  V30 14 N -2.27 -3.8344 0.0 0 CHG=1
M  V30 15 C -4.5166 -2.5406 0.0 0
M  V30 16 C -4.5166 0.047 0.0 0
M  V30 17 N -3.7403 4.2461 0.0 0
M  V30 18 C -1.529 5.2341 0.0 0
M  V30 19 O -0.788 -3.8226 0.0 0
M  V30 20 O -3.0228 -5.1165 0.0 0 CHG=-1
M  V30 21 C -5.2694 -1.235 0.0 0
M  V30 22 C -3.905 5.7399 0.0 0
M  V30 23 N -2.5406 6.3515 0.0 0
M  V30 24 C -2.2465 7.8218 0.0 0
M  V30 25 C -3.3639 8.8333 0.0 0
M  V30 26 C -3.0699 10.3036 0.0 0
M  V30 27 C -4.7989 8.3863 0.0 0
M  V30 28 C -4.1873 11.3151 0.0 0
M  V30 29 C -5.9163 9.3979 0.0 0
M  V30 30 C -5.6222 10.8681 0.0 0
M  V30 END ATOM
M  V30 BEGIN BOND
M  V30 1 2 1 2
M  V30 2 2 1 3
M  V30 3 1 1 4
M  V30 4 1 1 5
M  V30 5 1 4 6
M  V30 6 1 5 7
M  V30 7 2 6 8
M  V30 8 1 6 9
M  V30 9 2 7 10
M  V30 10 1 7 11
M  V30 11 1 8 12
M  V30 12 2 9 13
M  V30 13 1 10 14
M  V30 14 1 10 15
M  V30 15 2 11 16
M  V30 16 1 12 17
M  V30 17 2 12 18
M  V30 18 2 14 19
M  V30 19 1 14 20
M  V30 20 2 15 21
M  V30 21 2 17 22
M  V30 22 1 18 23
M  V30 23 1 23 24
M  V30 24 1 24 25
M  V30 25 2 25 26
M  V30 26 1 25 27
M  V30 27 1 26 28
M  V30 28 2 27 29
M  V30 29 2 28 30
M  V30 30 1 13 18
M  V30 31 1 16 21
M  V30 32 1 22 23
M  V30 33 1 29 30
M  V30 END BOND
M  V30 END CTAB
M  END
>  <Molecule Name>
CHEMBL457272

>  <smiles_curated>
O=[N+]([O-])c1ccccc1CS(=O)(=O)Nc1ccc2c(c1)ncn2Cc1ccccc1

>  <pchembl_value>
6.37

>  <target_organism>
Homo sapiens

>  <standard_type>
EC50

>  <target_pref_name>
Pregnane X receptor

>  <assay_description>
Agonist activity at human pregnane X receptor expressed in HGPXR reporter cells

>  <activity>
1

$$$$
CHEMBL3622879
Actelion Java MolfileCreator 2.0

  0  0  0  0  0  0              0 V3000
M  V30 BEGIN CTAB
M  V30 COUNTS 20 22 0 0 0
M  V30 BEGIN ATOM
M  V30 1 Cl 0.0 0.0 0.0 0
M  V30 2 C 1.4967 0.0118 0.0 0
M  V30 3 N 2.2332 1.3304 0.0 0
M  V30 4 C 2.2332 -1.2829 0.0 0
M  V30 5 C 3.73 1.3423 0.0 0
M  V30 6 C 3.73 -1.271 0.0 0
M  V30 7 C 1.473 -2.5777 0.0 0
M  V30 8 N 4.4665 0.0475 0.0 0
M  V30 9 C 4.4665 2.6609 0.0 0
M  V30 10 N 4.4665 -2.5658 0.0 0
M  V30 11 C 4.4546 4.1814 0.0 0
M  V30 12 C 5.7613 3.4211 0.0 0
M  V30 13 C 5.9632 -2.5539 0.0 0
M  V30 14 C 6.6997 -3.8488 0.0 0
M  V30 15 S 6.0702 -5.2149 0.0 0
M  V30 16 C 8.1846 -3.9913 0.0 0
M  V30 17 C 7.1749 -6.2127 0.0 0
M  V30 18 N 8.4816 -5.4524 0.0 0
M  V30 19 C 9.1825 -2.8628 0.0 0
M  V30 20 C 7.0086 -7.6976 0.0 0
M  V30 END ATOM
M  V30 BEGIN BOND
M  V30 1 1 1 2
M  V30 2 2 2 3
M  V30 3 1 2 4
M  V30 4 1 3 5
M  V30 5 2 4 6
M  V30 6 1 4 7
M  V30 7 2 5 8
M  V30 8 1 5 9
M  V30 9 1 6 10
M  V30 10 1 9 11
M  V30 11 1 9 12
M  V30 12 1 10 13
M  V30 13 1 13 14
M  V30 14 1 14 15
M  V30 15 2 14 16
M  V30 16 1 15 17
M  V30 17 1 16 18
M  V30 18 1 16 19
M  V30 19 1 17 20
M  V30 20 1 6 8
M  V30 21 1 11 12
M  V30 22 2 17 18
M  V30 END BOND
M  V30 END CTAB
M  END
>  <Molecule Name>
CHEMBL3622879

>  <smiles_curated>
Cc1nc(C)c(CNc2nc(C3CC3)nc(Cl)c2C)s1

>  <pchembl_value>
4.72

>  <target_organism>
Homo sapiens

>  <standard_type>
EC50

>  <target_pref_name>
Pregnane X receptor

>  <assay_description>
Activation of PXR (unknown origin)

>  <activity>
0

$$$$
CHEMBL4571861
Actelion Java MolfileCreator 2.0

  0  0  0  0  0  0              0 V3000
M  V30 BEGIN CTAB
M  V30 COUNTS 25 28 0 0 0
M  V30 BEGIN ATOM
M  V30 1 Cl 0.0 0.0 0.0 0
M  V30 2 C 0.6983 1.3375 0.0 0
M  V30 3 C -0.1065 2.6277 0.0 0
M  V30 4 C 2.1898 1.3967 0.0 0
M  V30 5 C 0.5918 3.9653 0.0 0
M  V30 6 C 2.8882 2.7343 0.0 0
M  V30 7 C 2.0832 4.0245 0.0 0
M  V30 8 C 2.7816 5.3621 0.0 0
M  V30 9 C 4.2021 4.9123 0.0 0
M  V30 10 C 1.5861 6.2972 0.0 0
M  V30 11 C 2.9829 6.8654 0.0 0
M  V30 12 N 5.4094 5.8119 0.0 0
M  V30 13 N 4.6519 3.4918 0.0 0
M  V30 14 N 6.6168 4.9359 0.0 0
M  V30 15 C 6.1433 3.5037 0.0 0
M  V30 16 C 3.8943 2.2016 0.0 0
M  V30 17 C 6.8772 2.2135 0.0 0
M  V30 18 C 4.6282 0.9114 0.0 0
M  V30 19 C 6.1196 0.9232 0.0 0
M  V30 20 C 8.3687 2.2253 0.0 0
M  V30 21 C 9.1025 0.9351 0.0 0
M  V30 22 C 10.594 0.9469 0.0 0
M  V30 23 O 12.0854 0.9587 0.0 0
M  V30 24 C 10.5822 2.462 0.0 0
M  V30 25 C 10.5822 -0.5444 0.0 0
M  V30 END ATOM
M  V30 BEGIN BOND
M  V30 1 1 1 2
M  V30 2 2 2 3
M  V30 3 1 2 4
M  V30 4 1 3 5
M  V30 5 2 4 6
M  V30 6 2 5 7
M  V30 7 1 7 8
M  V30 8 1 8 9
M  V30 9 1 8 10
M  V30 10 1 8 11
M  V30 11 2 9 12
M  V30 12 1 9 13
M  V30 13 1 12 14
M  V30 14 1 13 15
M  V30 15 1 13 16
M  V30 16 1 15 17
M  V30 17 2 16 18
M  V30 18 2 17 19
M  V30 19 1 17 20
M  V30 20 1 20 21
M  V30 21 1 21 22
M  V30 22 1 22 23
M  V30 23 1 22 24
M  V30 24 1 22 25
M  V30 25 1 6 7
M  V30 26 1 10 11
M  V30 27 2 14 15
M  V30 28 1 18 19
M  V30 END BOND
M  V30 END CTAB
M  END
>  <Molecule Name>
CHEMBL4571861

>  <smiles_curated>
CC(C)(O)CCc1cccn2c(C3(c4ccc(Cl)cc4)CC3)nnc12

>  <pchembl_value>
5.44

>  <target_organism>
Homo sapiens

>  <standard_type>
EC50

>  <target_pref_name>
Pregnane X receptor

>  <assay_description>
Activation of PXR (unknown origin)

>  <activity>
0

$$$$
CHEMBL396952
Actelion Java MolfileCreator 2.0

  0  0  0  0  0  0              0 V3000
M  V30 BEGIN CTAB
M  V30 COUNTS 33 35 0 0 0
M  V30 BEGIN ATOM
M  V30 1 S 0.0 0.0 0.0 0
M  V30 2 O -1.3123 -0.7448 0.0 0
M  V30 3 O 1.2886 0.7566 0.0 0
M  V30 4 N 0.7448 -1.2886 0.0 0
M  V30 5 C -0.7566 1.3123 0.0 0
M  V30 6 C -0.0118 -2.5773 0.0 0
M  V30 7 C 2.2344 -1.2768 0.0 0
M  V30 8 C -0.0118 2.6246 0.0 0
M  V30 9 C -2.2699 1.3241 0.0 0
M  V30 10 C -1.5251 -2.5655 0.0 0
M  V30 11 C 0.733 -3.866 0.0 0
M  V30 12 C 2.9793 -2.5655 0.0 0
M  V30 13 C -0.7684 3.9369 0.0 0
M  V30 14 C -3.0266 2.6364 0.0 0
M  V30 15 C -2.2817 -3.8542 0.0 0
M  V30 16 C -0.0236 -5.1546 0.0 0
M  V30 17 F 3.7241 -3.8542 0.0 0
M  V30 18 F 4.2679 -1.8088 0.0 0
M  V30 19 F 1.667 -3.3103 0.0 0
M  V30 20 C -2.2817 3.9487 0.0 0
M  V30 21 C -1.5369 -5.1428 0.0 0
M  V30 22 C -2.2936 -6.4315 0.0 0 CFG=1
M  V30 23 O -3.6059 -5.6748 0.0 0
M  V30 24 C -1.0049 -7.1763 0.0 0
M  V30 25 C -3.0502 -7.7202 0.0 0
M  V30 26 F 0.2837 -7.9212 0.0 0
M  V30 27 F 0.0236 -6.0886 0.0 0
M  V30 28 F -1.4305 -8.6069 0.0 0
M  V30 29 C -4.5635 -7.7084 0.0 0
M  V30 30 C -2.3054 -9.0089 0.0 0
M  V30 31 C -5.3202 -8.997 0.0 0
M  V30 32 C -3.062 -10.2975 0.0 0
M  V30 33 C -4.5753 -10.2857 0.0 0
M  V30 END ATOM
M  V30 BEGIN BOND
M  V30 1 2 1 2
M  V30 2 2 1 3
M  V30 3 1 1 4
M  V30 4 1 1 5
M  V30 5 1 4 6
M  V30 6 1 4 7
M  V30 7 2 5 8
M  V30 8 1 5 9
M  V30 9 2 6 10
M  V30 10 1 6 11
M  V30 11 1 7 12
M  V30 12 1 8 13
M  V30 13 2 9 14
M  V30 14 1 10 15
M  V30 15 2 11 16
M  V30 16 1 12 17
M  V30 17 1 12 18
M  V30 18 1 12 19
M  V30 19 2 13 20
M  V30 20 2 15 21
M  V30 21 1 21 22
M  V30 22 1 22 23 CFG=3
M  V30 23 1 22 24
M  V30 24 1 22 25
M  V30 25 1 24 26
M  V30 26 1 24 27
M  V30 27 1 24 28
M  V30 28 1 25 29
M  V30 29 1 25 30
M  V30 30 1 29 31
M  V30 31 1 30 32
M  V30 32 1 31 33
M  V30 33 1 14 20
M  V30 34 1 16 21
M  V30 35 1 32 33
M  V30 END BOND
M  V30 BEGIN COLLECTION
M  V30 MDLV30/STERAC1 ATOMS=(1 22)
M  V30 END COLLECTION
M  V30 END CTAB
M  END
>  <Molecule Name>
CHEMBL396952

>  <smiles_curated>
O=S(=O)(c1ccccc1)N(CC(F)(F)F)c1ccc(C(O)(C2CCCCC2)C(F)(F)F)cc1

>  <pchembl_value>
8.5

>  <target_organism>
Homo sapiens

>  <standard_type>
EC50

>  <target_pref_name>
Pregnane X receptor

>  <assay_description>
Antagonist activity at human PXR by transient transfection assay

>  <activity>
1

$$$$
CHEMBL463679
Actelion Java MolfileCreator 2.0

  0  0  0  0  0  0              0 V3000
M  V30 BEGIN CTAB
M  V30 COUNTS 30 33 0 0 0
M  V30 BEGIN ATOM
M  V30 1 S 0.0 0.0 0.0 0
M  V30 2 O -1.3068 0.7534 0.0 0
M  V30 3 O 1.2832 -0.7417 0.0 0
M  V30 4 N 0.7417 1.3068 0.0 0
M  V30 5 C -0.7534 -1.2832 0.0 0
M  V30 6 C -0.0117 2.6136 0.0 0
M  V30 7 C -2.2604 -1.2714 0.0 0
M  V30 8 C -0.0117 -2.5665 0.0 0
M  V30 9 C -1.5187 2.6254 0.0 0
M  V30 10 C 0.7299 3.9204 0.0 0
M  V30 11 C -3.0139 -2.5547 0.0 0
M  V30 12 C -0.7652 -3.8498 0.0 0
M  V30 13 C -2.2722 3.9322 0.0 0
M  V30 14 C -0.0235 5.2272 0.0 0
M  V30 15 C -2.2722 -3.838 0.0 0
M  V30 16 N -3.7438 4.2501 0.0 0
M  V30 17 C -1.5305 5.239 0.0 0
M  V30 18 C -3.0256 -5.1213 0.0 0
M  V30 19 C -3.9086 5.7452 0.0 0
M  V30 20 N -2.5429 6.3574 0.0 0
M  V30 21 C -4.3325 -4.3678 0.0 0
M  V30 22 C -1.7424 -5.863 0.0 0
M  V30 23 C -3.7791 -6.4045 0.0 0
M  V30 24 C -2.2486 7.8291 0.0 0
M  V30 25 C -3.3671 8.8416 0.0 0
M  V30 26 C -3.0727 10.3132 0.0 0
M  V30 27 C -4.8034 8.3942 0.0 0
M  V30 28 C -4.1912 11.3257 0.0 0
M  V30 29 C -5.9218 9.4067 0.0 0
M  V30 30 C -5.6275 10.8783 0.0 0
M  V30 END ATOM
M  V30 BEGIN BOND
M  V30 1 2 1 2
M  V30 2 2 1 3
M  V30 3 1 1 4
M  V30 4 1 1 5
M  V30 5 1 4 6
M  V30 6 2 5 7
M  V30 7 1 5 8
M  V30 8 2 6 9
M  V30 9 1 6 10
M  V30 10 1 7 11
M  V30 11 2 8 12
M  V30 12 1 9 13
M  V30 13 2 10 14
M  V30 14 2 11 15
M  V30 15 1 13 16
M  V30 16 2 13 17
M  V30 17 1 15 18
M  V30 18 2 16 19
M  V30 19 1 17 20
M  V30 20 1 18 21
M  V30 21 1 18 22
M  V30 22 1 18 23
M  V30 23 1 20 24
M  V30 24 1 24 25
M  V30 25 2 25 26
M  V30 26 1 25 27
M  V30 27 1 26 28
M  V30 28 2 27 29
M  V30 29 2 28 30
M  V30 30 1 12 15
M  V30 31 1 14 17
M  V30 32 1 19 20
M  V30 33 1 29 30
M  V30 END BOND
M  V30 END CTAB
M  END
>  <Molecule Name>
CHEMBL463679

>  <smiles_curated>
CC(C)(C)c1ccc(S(=O)(=O)Nc2ccc3c(c2)ncn3Cc2ccccc2)cc1

>  <pchembl_value>
7.38

>  <target_organism>
Homo sapiens

>  <standard_type>
EC50

>  <target_pref_name>
Pregnane X receptor

>  <assay_description>
Agonist activity at human pregnane X receptor expressed in HGPXR reporter cells

>  <activity>
1

$$$$
CHEMBL1702784
Actelion Java MolfileCreator 2.0

  0  0  0  0  0  0              0 V3000
M  V30 BEGIN CTAB
M  V30 COUNTS 19 21 0 0 0
M  V30 BEGIN ATOM
M  V30 1 S 0.0 0.0 0.0 0
M  V30 2 C -0.8947 1.2243 0.0 0
M  V30 3 C 1.4127 0.4709 0.0 0
M  V30 4 C -0.0235 2.4486 0.0 0
M  V30 5 C -2.4016 1.2361 0.0 0
M  V30 6 C 1.4009 1.9777 0.0 0
M  V30 7 C -3.155 2.5428 0.0 0
M  V30 8 C -2.4133 3.8496 0.0 0
M  V30 9 C -4.6619 2.5546 0.0 0
M  V30 10 O -0.93 3.8614 0.0 0
M  V30 11 C -3.1668 5.1563 0.0 0
M  V30 12 C -5.4153 3.8614 0.0 0
M  V30 13 C -2.4251 6.4631 0.0 0
M  V30 14 C -4.6737 5.1681 0.0 0
M  V30 15 C -0.9418 6.4749 0.0 0
M  V30 16 S -0.0706 5.2741 0.0 0
M  V30 17 C -0.0706 7.6992 0.0 0
M  V30 18 C 1.342 5.745 0.0 0
M  V30 19 C 1.342 7.2519 0.0 0
M  V30 END ATOM
M  V30 BEGIN BOND
M  V30 1 1 1 2
M  V30 2 1 1 3
M  V30 3 2 2 4
M  V30 4 1 2 5
M  V30 5 2 3 6
M  V30 6 2 5 7
M  V30 7 1 7 8
M  V30 8 1 7 9
M  V30 9 2 8 10
M  V30 10 1 8 11
M  V30 11 1 9 12
M  V30 12 2 11 13
M  V30 13 1 11 14
M  V30 14 1 13 15
M  V30 15 1 15 16
M  V30 16 2 15 17
M  V30 17 1 16 18
M  V30 18 1 17 19
M  V30 19 1 4 6
M  V30 20 1 12 14
M  V30 21 2 18 19
M  V30 END BOND
M  V30 END CTAB
M  END
>  <Molecule Name>
CHEMBL1702784

>  <smiles_curated>
O=C1/C(=C\c2cccs2)CCC/C1=C/c1cccs1

>  <pchembl_value>
4.97

>  <target_organism>
Homo sapiens

>  <standard_type>
EC50

>  <target_pref_name>
Pregnane X receptor

>  <assay_description>
Activation of human PXR expressed in human HepG2 (DPX-2) cells after 24 hrs by luciferase reporter gene based luminescent analysis,Competitive binding affinity to human PXR LBD (111 to 434) by TR-FRET assay

>  <activity>
0

$$$$
CHEMBL4571076
Actelion Java MolfileCreator 2.0

  0  0  0  0  0  0              0 V3000
M  V30 BEGIN CTAB
M  V30 COUNTS 32 34 0 0 0
M  V30 BEGIN ATOM
M  V30 1 S 0.0 0.0 0.0 0
M  V30 2 O 1.3622 0.2067 0.0 0
M  V30 3 O -1.5447 0.1702 0.0 0
M  V30 4 C 0.1459 1.5447 0.0 0
M  V30 5 C -0.1702 -1.5203 0.0 0
M  V30 6 C -1.1189 2.469 0.0 0
M  V30 7 C 1.5447 2.1893 0.0 0
M  V30 8 C 1.3622 -1.5082 0.0 0
M  V30 9 C -1.6906 -1.1919 0.0 0
M  V30 10 C -0.0243 -3.0407 0.0 0
M  V30 11 C -0.973 4.0137 0.0 0
M  V30 12 C 1.6906 3.734 0.0 0
M  V30 13 C 2.1285 -2.8339 0.0 0
M  V30 14 C 2.1285 -0.1581 0.0 0
M  V30 15 C -2.469 -2.5177 0.0 0
M  V30 16 C -1.4473 -3.661 0.0 0
M  V30 17 C 0.4257 4.6584 0.0 0
M  V30 18 C 3.661 -2.8218 0.0 0
M  V30 19 C 3.661 -0.1459 0.0 0
M  V30 20 F 0.5716 6.2031 0.0 0
M  V30 21 C 4.4273 -1.4717 0.0 0
M  V30 22 C 5.9598 -1.4595 0.0 0
M  V30 23 O 5.9477 0.0973 0.0 0
M  V30 24 C 7.4924 -1.4473 0.0 0
M  V30 25 C 5.9477 -2.992 0.0 0
M  V30 26 C 7.164 1.0338 0.0 0
M  V30 27 F 9.0249 -1.4352 0.0 0
M  V30 28 F 7.6626 0.0973 0.0 0
M  V30 29 F 7.5897 -2.3352 0.0 0
M  V30 30 F 5.9355 -4.5246 0.0 0
M  V30 31 F 6.8356 -3.0894 0.0 0
M  V30 32 F 4.4394 -3.3569 0.0 0
M  V30 END ATOM
M  V30 BEGIN BOND
M  V30 1 2 1 2
M  V30 2 2 1 3
M  V30 3 1 1 4
M  V30 4 1 1 5
M  V30 5 2 4 6
M  V30 6 1 4 7
M  V30 7 1 5 8
M  V30 8 1 5 9
M  V30 9 1 5 10
M  V30 10 1 6 11
M  V30 11 2 7 12
M  V30 12 2 8 13
M  V30 13 1 8 14
M  V30 14 1 9 15
M  V30 15 1 10 16
M  V30 16 2 11 17
M  V30 17 1 13 18
M  V30 18 2 14 19
M  V30 19 1 17 20
M  V30 20 2 18 21
M  V30 21 1 21 22
M  V30 22 1 22 23
M  V30 23 1 22 24
M  V30 24 1 22 25
M  V30 25 1 23 26
M  V30 26 1 24 27
M  V30 27 1 24 28
M  V30 28 1 24 29
M  V30 29 1 25 30
M  V30 30 1 25 31
M  V30 31 1 25 32
M  V30 32 1 12 17
M  V30 33 1 15 16
M  V30 34 1 19 21
M  V30 END BOND
M  V30 END CTAB
M  END
>  <Molecule Name>
CHEMBL4571076

>  <smiles_curated>
COC(c1ccc(C2(S(=O)(=O)c3ccc(F)cc3)CCCC2)cc1)(C(F)(F)F)C(F)(F)F

>  <pchembl_value>
6.04

>  <target_organism>
Homo sapiens

>  <standard_type>
EC50

>  <target_pref_name>
Pregnane X receptor

>  <assay_description>
Transactivation of PXR in human HepG2 cells

>  <activity>
1

$$$$
CHEMBL523414
Actelion Java MolfileCreator 2.0

  0  0  0  0  0  0              0 V3000
M  V30 BEGIN CTAB
M  V30 COUNTS 29 33 0 0 0
M  V30 BEGIN ATOM
M  V30 1 Cl 0.0 0.0 0.0 0
M  V30 2 C 0.744 1.3109 0.0 0
M  V30 3 C 2.232 1.3227 0.0 0
M  V30 4 C -0.0118 2.6218 0.0 0
M  V30 5 C 2.9761 0.0354 0.0 0
M  V30 6 C 2.9761 2.6336 0.0 0
M  V30 7 C 0.7322 3.9327 0.0 0
M  V30 8 N 2.3501 -1.3227 0.0 0
M  V30 9 N 4.4523 -0.1062 0.0 0
M  V30 10 C 2.2202 3.9445 0.0 0
M  V30 11 N -0.0236 5.2436 0.0 0
M  V30 12 N 3.4485 -2.3147 0.0 0
M  V30 13 C 4.7476 -1.5589 0.0 0
M  V30 14 C 5.4444 1.0156 0.0 0
M  V30 15 C 0.5786 6.6254 0.0 0
M  V30 16 C -1.5234 5.4089 0.0 0
M  V30 17 C 6.1057 -2.1612 0.0 0
M  V30 18 N -0.5432 7.641 0.0 0
M  V30 19 C -1.8423 6.8852 0.0 0
M  V30 20 C 6.708 -0.7794 0.0 0
M  V30 21 C 5.4798 -3.5193 0.0 0
M  V30 22 C 7.4639 -2.7635 0.0 0
M  V30 23 C 8.1843 -0.6141 0.0 0
M  V30 24 C 5.8105 0.4487 0.0 0
M  V30 25 C 6.838 -4.1216 0.0 0
M  V30 26 C 8.7866 0.7676 0.0 0
M  V30 27 C 6.4128 1.8305 0.0 0
M  V30 28 C 7.889 1.9958 0.0 0
M  V30 29 Cl 8.4914 3.3776 0.0 0
M  V30 END ATOM
M  V30 BEGIN BOND
M  V30 1 1 1 2
M  V30 2 2 2 3
M  V30 3 1 2 4
M  V30 4 1 3 5
M  V30 5 1 3 6
M  V30 6 2 4 7
M  V30 7 2 5 8
M  V30 8 1 5 9
M  V30 9 2 6 10
M  V30 10 1 7 11
M  V30 11 1 8 12
M  V30 12 1 9 13
M  V30 13 1 9 14
M  V30 14 1 11 15
M  V30 15 1 11 16
M  V30 16 1 13 17
M  V30 17 2 15 18
M  V30 18 2 16 19
M  V30 19 1 17 20
M  V30 20 1 17 21
M  V30 21 1 17 22
M  V30 22 2 20 23
M  V30 23 1 20 24
M  V30 24 1 21 25
M  V30 25 1 23 26
M  V30 26 2 24 27
M  V30 27 2 26 28
M  V30 28 1 28 29
M  V30 29 1 7 10
M  V30 30 2 12 13
M  V30 31 1 18 19
M  V30 32 1 22 25
M  V30 33 1 27 28
M  V30 END BOND
M  V30 END CTAB
M  END
>  <Molecule Name>
CHEMBL523414

>  <smiles_curated>
Cn1c(-c2ccc(-n3ccnc3)cc2Cl)nnc1C1(c2ccc(Cl)cc2)CCC1

>  <pchembl_value>
4.92

>  <target_organism>
Homo sapiens

>  <standard_type>
EC50

>  <target_pref_name>
Pregnane X receptor

>  <assay_description>
Agonist activity at human PXR

>  <activity>
0

$$$$
CHEMBL4062780
Actelion Java MolfileCreator 2.0

  0  0  0  0  0  0              0 V3000
M  V30 BEGIN CTAB
M  V30 COUNTS 29 32 0 0 0
M  V30 BEGIN ATOM
M  V30 1 Cl 0.0 0.0 0.0 0
M  V30 2 C -1.1182 1.0123 0.0 0
M  V30 3 C -0.8239 2.4836 0.0 0
M  V30 4 C -2.5542 0.565 0.0 0
M  V30 5 N 0.5885 2.9545 0.0 0
M  V30 6 C -1.9422 3.4959 0.0 0
M  V30 7 C -3.6725 1.5773 0.0 0
M  V30 8 C 0.8828 4.4258 0.0 0
M  V30 9 C -3.3782 3.0486 0.0 0
M  V30 10 S -5.1085 1.13 0.0 0
M  V30 11 C 2.2953 4.8967 0.0 0 CFG=2
M  V30 12 F -4.4964 4.0609 0.0 0
M  V30 13 O -4.6612 -0.2825 0.0 0
M  V30 14 O -5.5794 2.566 0.0 0
M  V30 15 N -6.5446 0.6827 0.0 0
M  V30 16 N 3.7078 5.3675 0.0 0
M  V30 17 C 1.4007 6.1208 0.0 0
M  V30 18 C 2.2835 3.4135 0.0 0
M  V30 19 C -7.6628 1.695 0.0 0
M  V30 20 C 3.696 6.8742 0.0 0
M  V30 21 C 4.5788 4.1669 0.0 0
M  V30 22 C 2.2717 7.345 0.0 0
M  V30 23 C 3.696 2.9662 0.0 0
M  V30 24 S -7.5216 3.1899 0.0 0
M  V30 25 N -9.1342 1.4007 0.0 0
M  V30 26 C 2.8721 8.7222 0.0 0
M  V30 27 C 0.9652 8.0984 0.0 0
M  V30 28 C -8.8988 3.8137 0.0 0
M  V30 29 C -9.8875 2.7073 0.0 0
M  V30 END ATOM
M  V30 BEGIN BOND
M  V30 1 1 1 2
M  V30 2 2 2 3
M  V30 3 1 2 4
M  V30 4 1 3 5
M  V30 5 1 3 6
M  V30 6 2 4 7
M  V30 7 1 5 8
M  V30 8 2 6 9
M  V30 9 1 7 10
M  V30 10 1 11 8 CFG=1
M  V30 11 1 9 12
M  V30 12 2 10 13
M  V30 13 2 10 14
M  V30 14 1 10 15
M  V30 15 1 11 16
M  V30 16 1 11 17
M  V30 17 1 11 18
M  V30 18 1 15 19
M  V30 19 1 16 20
M  V30 20 1 16 21
M  V30 21 1 17 22
M  V30 22 1 18 23
M  V30 23 1 19 24
M  V30 24 2 19 25
M  V30 25 1 22 26
M  V30 26 1 22 27
M  V30 27 1 24 28
M  V30 28 1 25 29
M  V30 29 1 7 9
M  V30 30 1 20 22
M  V30 31 1 21 23
M  V30 32 2 28 29
M  V30 END BOND
M  V30 BEGIN COLLECTION
M  V30 MDLV30/STEABS ATOMS=(1 11)
M  V30 END COLLECTION
M  V30 END CTAB
M  END
>  <Molecule Name>
CHEMBL4062780

>  <smiles_curated>
CC1(C)CN2CCC[C@]2(CNc2cc(F)c(S(=O)(=O)Nc3nccs3)cc2Cl)C1

>  <pchembl_value>
5.25

>  <target_organism>
Homo sapiens

>  <standard_type>
EC50

>  <target_pref_name>
Pregnane X receptor

>  <assay_description>
Activation of PXR (unknown origin)

>  <activity>
0

$$$$
CHEMBL1200617
Actelion Java MolfileCreator 2.0

  0  0  0  0  0  0              0 V3000
M  V30 BEGIN CTAB
M  V30 COUNTS 27 30 0 0 0
M  V30 BEGIN ATOM
M  V30 1 O 0.0 0.0 0.0 0
M  V30 2 C -0.7565 -1.2884 0.0 0
M  V30 3 C -0.0236 -2.5769 0.0 0
M  V30 4 C -2.2696 -1.2766 0.0 0
M  V30 5 C -0.7801 -3.8654 0.0 0
M  V30 6 C -3.0261 -2.5651 0.0 0
M  V30 7 C -2.2932 -3.8536 0.0 0 CFG=2
M  V30 8 C -0.0472 -5.1538 0.0 0
M  V30 9 C -3.0497 -5.142 0.0 0 CFG=1
M  V30 10 C -3.8063 -3.8417 0.0 0
M  V30 11 C -0.8038 -6.4423 0.0 0
M  V30 12 C -4.5628 -5.1302 0.0 0 CFG=1
M  V30 13 C -2.3168 -6.4305 0.0 0 CFG=1
M  V30 14 O -5.3193 -3.8181 0.0 0
M  V30 15 C -5.3193 -6.4187 0.0 0
M  V30 16 C -3.0734 -7.719 0.0 0 CFG=1
M  V30 17 C -4.5864 -7.7072 0.0 0 CFG=1
M  V30 18 C -2.6242 -9.1375 0.0 0
M  V30 19 C -5.0593 -9.1257 0.0 0 CFG=2
M  V30 20 C -6.0877 -7.849 0.0 0
M  V30 21 C -3.8536 -10.0122 0.0 0 CFG=2
M  V30 22 C -6.4423 -8.4992 0.0 0
M  V30 23 C -5.8158 -10.4141 0.0 0
M  V30 24 C -3.8654 -11.5017 0.0 0
M  V30 25 O -6.6078 -6.9979 0.0 0
M  V30 26 C -7.6717 -9.3739 0.0 0
M  V30 27 C -9.0547 -8.7474 0.0 0
M  V30 END ATOM
M  V30 BEGIN BOND
M  V30 1 2 1 2
M  V30 2 1 2 3
M  V30 3 1 2 4
M  V30 4 2 3 5
M  V30 5 2 4 6
M  V30 6 1 5 7
M  V30 7 1 5 8
M  V30 8 1 7 9
M  V30 9 1 7 10 CFG=3
M  V30 10 1 8 11
M  V30 11 1 9 12 CFG=3
M  V30 12 1 9 13
M  V30 13 1 12 14 CFG=3
M  V30 14 1 12 15
M  V30 15 1 13 16
M  V30 16 1 15 17
M  V30 17 1 16 18 CFG=3
M  V30 18 1 17 19
M  V30 19 1 17 20 CFG=3
M  V30 20 1 18 21
M  V30 21 1 19 22
M  V30 22 1 19 23 CFG=1
M  V30 23 1 21 24 CFG=1
M  V30 24 2 22 25
M  V30 25 1 22 26
M  V30 26 1 26 27
M  V30 27 1 6 7
M  V30 28 1 13 11 CFG=1
M  V30 29 1 16 17
M  V30 30 1 19 21
M  V30 END BOND
M  V30 BEGIN COLLECTION
M  V30 MDLV30/STEABS ATOMS=(8 7 9 12 13 16 17 19 21)
M  V30 END COLLECTION
M  V30 END CTAB
M  END
>  <Molecule Name>
CHEMBL1200617

>  <smiles_curated>
CCC(=O)[C@@]1(C)[C@H](C)C[C@H]2[C@@H]3CCC4=CC(=O)C=C[C@]4(C)[C@H]3[C@@H](O)C[C@@]21C

>  <pchembl_value>
5.7

>  <target_organism>
Homo sapiens

>  <standard_type>
EC50

>  <target_pref_name>
Pregnane X receptor

>  <assay_description>
Activation of PXR in human cryopreserved hepatocytes assessed as induction of CYP3A4,Activation of human PXR expressed in human HepG2 (DPX-2) cells after 24 hrs by luciferase reporter gene based luminescent analysis,Activation of human PXR expressed in human HepG2 (DPX-2) cells assessed as induction of CYP3A4 after 24 hrs by luminescent analysis,Competitive binding affinity to human PXR LBD (111 to 434) by TR-FRET assay

>  <activity>
0

$$$$
CHEMBL1407509
Actelion Java MolfileCreator 2.0

  0  0  0  0  0  0              0 V3000
M  V30 BEGIN CTAB
M  V30 COUNTS 23 26 0 0 0
M  V30 BEGIN ATOM
M  V30 1 S 0.0 0.0 0.0 0
M  V30 2 C -0.4724 -1.4172 0.0 0
M  V30 3 C -1.2282 0.8976 0.0 0
M  V30 4 N 0.2716 -2.7046 0.0 0
M  V30 5 C -1.9841 -1.4054 0.0 0
M  V30 6 C -2.4565 0.0236 0.0 0
M  V30 7 C -1.2401 2.4093 0.0 0
M  V30 8 C -0.4842 -3.9919 0.0 0
M  V30 9 C -2.74 -2.6928 0.0 0
M  V30 10 N -3.8974 0.496 0.0 0
M  V30 11 O -2.551 3.177 0.0 0
M  V30 12 N 0.0472 3.177 0.0 0
M  V30 13 C -1.9959 -3.9801 0.0 0
M  V30 14 C 0.2598 -5.2793 0.0 0
M  V30 15 C 1.3345 2.4329 0.0 0
M  V30 16 C 0.0354 4.6887 0.0 0
M  V30 17 C -2.7518 -5.2675 0.0 0
M  V30 18 C -0.496 -6.5666 0.0 0
M  V30 19 C 1.7479 -5.2675 0.0 0
M  V30 20 C 2.6219 3.2006 0.0 0
M  V30 21 C 1.3227 5.4446 0.0 0
M  V30 22 C -2.0077 -6.5548 0.0 0
M  V30 23 O 2.6101 4.7124 0.0 0
M  V30 END ATOM
M  V30 BEGIN BOND
M  V30 1 1 1 2
M  V30 2 1 1 3
M  V30 3 2 2 4
M  V30 4 1 2 5
M  V30 5 2 3 6
M  V30 6 1 3 7
M  V30 7 1 4 8
M  V30 8 2 5 9
M  V30 9 1 6 10
M  V30 10 2 7 11
M  V30 11 1 7 12
M  V30 12 1 8 13
M  V30 13 2 8 14
M  V30 14 1 12 15
M  V30 15 1 12 16
M  V30 16 2 13 17
M  V30 17 1 14 18
M  V30 18 1 14 19
M  V30 19 1 15 20
M  V30 20 1 16 21
M  V30 21 1 17 22
M  V30 22 1 20 23
M  V30 23 1 5 6
M  V30 24 1 9 13
M  V30 25 2 18 22
M  V30 26 1 21 23
M  V30 END BOND
M  V30 END CTAB
M  END
>  <Molecule Name>
CHEMBL1407509

>  <smiles_curated>
Cc1cccc2cc3c(nc12)sc(C(=O)N1CCOCC1)c3N

>  <pchembl_value>
4.16

>  <target_organism>
Homo sapiens

>  <standard_type>
EC50

>  <target_pref_name>
Pregnane X receptor

>  <assay_description>
PUBCHEM_BIOASSAY: Luminescence-based counterscreen for activators of the Aryl Hydrocarbon Receptor (AHR): cell-based high throughput dose response screening assay for activators of the Pregnane X Receptor (PXR). (Class of assay: confirmatory) [Related pubchem assays: 2796 (Primary screen (AHR activators in singlicate)), 2845 (Confirmation screen (AHR activators in triplicate)), 434939 (Counterscreen (PXR activators in triplicate)), 2804 (Summary (AHR activators))]

>  <activity>
0

$$$$
CHEMBL3334825
Actelion Java MolfileCreator 2.0

  0  0  0  0  0  0              0 V3000
M  V30 BEGIN CTAB
M  V30 COUNTS 31 32 0 0 0
M  V30 BEGIN ATOM
M  V30 1 Cl 0.0 0.0 0.0 0
M  V30 2 C 1.1367 0.9827 0.0 0
M  V30 3 C 0.8643 2.4747 0.0 0
M  V30 4 C 2.5339 0.4854 0.0 0
M  V30 5 C 2.001 3.4574 0.0 0
M  V30 6 C 3.6706 1.4682 0.0 0
M  V30 7 C 3.3982 2.9601 0.0 0
M  V30 8 C 4.5349 3.9429 0.0 0 CFG=2
M  V30 9 O 3.3745 4.9257 0.0 0
M  V30 10 C 5.2809 5.2572 0.0 0
M  V30 11 C 5.2809 2.6523 0.0 0
M  V30 12 C 6.7728 5.2691 0.0 0
M  V30 13 C 3.86 5.7782 0.0 0
M  V30 14 C 5.5295 6.7491 0.0 0
M  V30 15 C 6.7728 2.6641 0.0 0
M  V30 16 N 7.5188 3.9784 0.0 0
M  V30 17 C 9.0107 3.9903 0.0 0
M  V30 18 O 9.7567 5.3046 0.0 0
M  V30 19 C 9.7567 2.6996 0.0 0 CFG=2
M  V30 20 N 8.9989 1.409 0.0 0
M  V30 21 C 11.2486 2.7115 0.0 0
M  V30 22 C 9.7448 0.1184 0.0 0
M  V30 23 C 11.9946 1.4208 0.0 0
M  V30 24 C 11.9946 4.0258 0.0 0
M  V30 25 O 11.2368 0.1302 0.0 0
M  V30 26 C 8.987 -1.1722 0.0 0
M  V30 27 C 9.733 -2.4628 0.0 0
M  V30 28 C 8.9752 -3.7534 0.0 0
M  V30 29 O 8.2174 -5.0441 0.0 0
M  V30 30 C 7.6609 -2.9956 0.0 0
M  V30 31 C 10.2658 -4.4994 0.0 0
M  V30 END ATOM
M  V30 BEGIN BOND
M  V30 1 1 1 2
M  V30 2 2 2 3
M  V30 3 1 2 4
M  V30 4 1 3 5
M  V30 5 2 4 6
M  V30 6 2 5 7
M  V30 7 1 7 8
M  V30 8 1 8 9 CFG=1
M  V30 9 1 8 10
M  V30 10 1 8 11
M  V30 11 1 10 12
M  V30 12 1 10 13
M  V30 13 1 10 14
M  V30 14 1 11 15
M  V30 15 1 12 16
M  V30 16 1 16 17
M  V30 17 2 17 18
M  V30 18 1 17 19
M  V30 19 1 19 20 CFG=1
M  V30 20 1 19 21
M  V30 21 1 20 22
M  V30 22 1 21 23
M  V30 23 1 21 24
M  V30 24 2 22 25
M  V30 25 1 22 26
M  V30 26 1 26 27
M  V30 27 1 27 28
M  V30 28 1 28 29
M  V30 29 1 28 30
M  V30 30 1 28 31
M  V30 31 1 6 7
M  V30 32 1 15 16
M  V30 END BOND
M  V30 BEGIN COLLECTION
M  V30 MDLV30/STEABS ATOMS=(2 8 19)
M  V30 END COLLECTION
M  V30 END CTAB
M  END
>  <Molecule Name>
CHEMBL3334825

>  <smiles_curated>
CC(C)[C@@H](NC(=O)CCC(C)(C)O)C(=O)N1CC[C@](O)(c2ccc(Cl)cc2)C(C)(C)C1

>  <pchembl_value>
4.6

>  <target_organism>
Homo sapiens

>  <standard_type>
EC50

>  <target_pref_name>
Pregnane X receptor

>  <assay_description>
Transactivation of human full-length PXR transfected in human HepG2 cells after 24 hrs by luciferase reporter gene assay

>  <activity>
0

$$$$
CHEMBL516308
Actelion Java MolfileCreator 2.0

  0  0  0  0  0  0              0 V3000
M  V30 BEGIN CTAB
M  V30 COUNTS 30 34 0 0 0
M  V30 BEGIN ATOM
M  V30 1 S 0.0 0.0 0.0 0
M  V30 2 O -1.3151 0.7582 0.0 0
M  V30 3 O 1.2914 -0.7464 0.0 0
M  V30 4 N -0.7582 -1.2914 0.0 0
M  V30 5 C 0.7464 1.3151 0.0 0
M  V30 6 C -0.0118 -2.5829 0.0 0
M  V30 7 C -0.0118 2.6303 0.0 0
M  V30 8 C 2.2393 1.327 0.0 0
M  V30 9 C -0.7701 -3.8744 0.0 0
M  V30 10 C 1.481 -2.571 0.0 0
M  V30 11 C 0.7345 3.9455 0.0 0
M  V30 12 C 2.9857 2.6421 0.0 0
M  V30 13 C -0.0236 -5.1658 0.0 0
M  V30 14 C 2.2274 -3.8625 0.0 0
M  V30 15 C 2.2274 3.9573 0.0 0
M  V30 16 C -0.0236 5.2606 0.0 0
M  V30 17 N -0.4976 -6.5877 0.0 0
M  V30 18 C 1.4691 -5.154 0.0 0
M  V30 19 C 2.9739 5.2725 0.0 0
M  V30 20 C 0.7227 6.5758 0.0 0
M  V30 21 C 0.7109 -7.4644 0.0 0
M  V30 22 N 1.9194 -6.5758 0.0 0
M  V30 23 C 2.2156 6.5877 0.0 0
M  V30 24 C 3.3412 -7.026 0.0 0
M  V30 25 C 3.6374 -8.4834 0.0 0
M  V30 26 C 2.5118 -9.4787 0.0 0
M  V30 27 C 5.0592 -8.9336 0.0 0
M  V30 28 C 2.808 -10.936 0.0 0
M  V30 29 C 5.3554 -10.391 0.0 0
M  V30 30 C 4.2298 -11.3862 0.0 0
M  V30 END ATOM
M  V30 BEGIN BOND
M  V30 1 2 1 2
M  V30 2 2 1 3
M  V30 3 1 1 4
M  V30 4 1 1 5
M  V30 5 1 4 6
M  V30 6 2 5 7
M  V30 7 1 5 8
M  V30 8 2 6 9
M  V30 9 1 6 10
M  V30 10 1 7 11
M  V30 11 2 8 12
M  V30 12 1 9 13
M  V30 13 2 10 14
M  V30 14 1 11 15
M  V30 15 2 11 16
M  V30 16 1 13 17
M  V30 17 2 13 18
M  V30 18 2 15 19
M  V30 19 1 16 20
M  V30 20 2 17 21
M  V30 21 1 18 22
M  V30 22 1 19 23
M  V30 23 1 22 24
M  V30 24 1 24 25
M  V30 25 2 25 26
M  V30 26 1 25 27
M  V30 27 1 26 28
M  V30 28 2 27 29
M  V30 29 2 28 30
M  V30 30 1 12 15
M  V30 31 1 14 18
M  V30 32 2 20 23
M  V30 33 1 21 22
M  V30 34 1 29 30
M  V30 END BOND
M  V30 END CTAB
M  END
>  <Molecule Name>
CHEMBL516308

>  <smiles_curated>
O=S(=O)(Nc1ccc2c(c1)ncn2Cc1ccccc1)c1ccc2ccccc2c1

>  <pchembl_value>
7.29

>  <target_organism>
Homo sapiens

>  <standard_type>
EC50

>  <target_pref_name>
Pregnane X receptor

>  <assay_description>
Agonist activity at human pregnane X receptor expressed in HGPXR reporter cells

>  <activity>
1

$$$$
