116
  Mrv0541 02231214272D          

 32 34  0  0  1  0            999 V2000
    3.5220   -0.2143    0.0000 O   0  0  0  0  0  0  0  0  0  0  0  0
    9.9988    1.0569    0.0000 O   0  0  0  0  0  0  0  0  0  0  0  0
   12.8598    0.2429    0.0000 O   0  0  0  0  0  0  0  0  0  0  0  0
   12.1501   -0.9974    0.0000 O   0  0  0  0  0  0  0  0  0  0  0  0
   12.8502    2.7179    0.0000 O   0  0  0  0  0  0  0  0  0  0  0  0
   11.4213    2.7124    0.0000 O   0  0  0  0  0  0  0  0  0  0  0  0
    4.9740   -1.0107    0.0000 N   0  0  0  0  0  0  0  0  0  0  0  0
    4.9740   -2.7179    0.0000 N   0  0  0  0  0  0  0  0  0  0  0  0
    7.1504   -1.4292    0.0000 N   0  0  0  0  0  0  0  0  0  0  0  0
    3.5220   -2.6894    0.0000 N   0  0  0  0  0  0  0  0  0  0  0  0
    2.8075   -1.4518    0.0000 N   0  0  0  0  0  0  0  0  0  0  0  0
   10.7180   -0.1779    0.0000 N   0  0  0  0  0  0  0  0  0  0  0  0
    2.0930   -2.6894    0.0000 N   0  0  0  0  0  0  0  0  0  0  0  0
    5.7214   -1.4347    0.0000 C   0  0  0  0  0  0  0  0  0  0  0  0
    5.7214   -2.2940    0.0000 C   0  0  0  0  0  0  0  0  0  0  0  0
    6.4343   -1.0194    0.0000 C   0  0  0  0  0  0  0  0  0  0  0  0
    4.2364   -1.4518    0.0000 C   0  0  0  0  0  0  0  0  0  0  0  0
    4.2364   -2.2769    0.0000 C   0  0  0  0  0  0  0  0  0  0  0  0
    7.8633   -1.0139    0.0000 C   0  0  0  0  0  0  0  0  0  0  0  0
    3.5220   -1.0393    0.0000 C   0  0  0  0  0  0  0  0  0  0  0  0
    2.8075   -2.2769    0.0000 C   0  0  0  0  0  0  0  0  0  0  0  0
   11.4309    0.2374    0.0000 C   0  0  1  0  0  0  0  0  0  0  0  0
   11.4277    1.0624    0.0000 C   0  0  0  0  0  0  0  0  0  0  0  0
    8.5793   -1.4236    0.0000 C   0  0  0  0  0  0  0  0  0  0  0  0
    7.8601   -0.1888    0.0000 C   0  0  0  0  0  0  0  0  0  0  0  0
    9.2890   -0.1834    0.0000 C   0  0  0  0  0  0  0  0  0  0  0  0
    9.2922   -1.0084    0.0000 C   0  0  0  0  0  0  0  0  0  0  0  0
    8.5730    0.2264    0.0000 C   0  0  0  0  0  0  0  0  0  0  0  0
   12.1406    1.4777    0.0000 C   0  0  0  0  0  0  0  0  0  0  0  0
   10.0019    0.2319    0.0000 C   0  0  0  0  0  0  0  0  0  0  0  0
   12.1469   -0.1723    0.0000 C   0  0  0  0  0  0  0  0  0  0  0  0
   12.1374    2.3027    0.0000 C   0  0  0  0  0  0  0  0  0  0  0  0
  1 20  2  0  0  0  0
  2 30  2  0  0  0  0
  3 31  1  0  0  0  0
  4 31  2  0  0  0  0
  5 32  1  0  0  0  0
  6 32  2  0  0  0  0
  7 14  1  0  0  0  0
  7 17  1  0  0  0  0
  8 15  1  0  0  0  0
  8 18  1  0  0  0  0
  9 16  1  0  0  0  0
  9 19  1  0  0  0  0
 10 18  1  0  0  0  0
 10 21  1  0  0  0  0
 11 20  1  0  0  0  0
 11 21  2  0  0  0  0
 22 12  1  1  0  0  0
 12 30  1  0  0  0  0
 13 21  1  0  0  0  0
 14 15  1  0  0  0  0
 14 16  1  0  0  0  0
 17 18  2  0  0  0  0
 17 20  1  0  0  0  0
 19 24  2  0  0  0  0
 19 25  1  0  0  0  0
 22 23  1  0  0  0  0
 22 31  1  0  0  0  0
 23 29  1  0  0  0  0
 24 27  1  0  0  0  0
 25 28  2  0  0  0  0
 26 27  2  0  0  0  0
 26 28  1  0  0  0  0
 26 30  1  0  0  0  0
 29 32  1  0  0  0  0
M  END
>  <DRUGBANK_ID>
DB00116

>  <DRUG_GROUPS>
approved; nutraceutical

>  <GENERIC_NAME>
Tetrahydrofolic acid

>  <SYNONYMS>
5,6,7,8-tetrahydrofolate; 5,6,7,8-tetrahydrofolic acid; tetrahydrofolate

>  <CHEMICAL_FORMULA>
C19H23N7O6

>  <MOLECULAR_WEIGHT>
445.4292

>  <EXACT_MASS>
445.170981503

>  <IUPAC_NAME>
(2S)-2-[(4-{[(2-amino-4-oxo-1,4,5,6,7,8-hexahydropteridin-6-yl)methyl]amino}phenyl)formamido]pentanedioic acid

>  <INCHI_IDENTIFIER>
InChI=1S/C19H23N7O6/c20-19-25-15-14(17(30)26-19)23-11(8-22-15)7-21-10-3-1-9(2-4-10)16(29)24-12(18(31)32)5-6-13(27)28/h1-4,11-12,21,23H,5-8H2,(H,24,29)(H,27,28)(H,31,32)(H4,20,22,25,26,30)/t11?,12-/m0/s1

>  <INCHI_KEY>
InChIKey=MSTNYGQPCMXVAQ-KIYNQFGBSA-N

>  <SMILES>
NC1=NC(=O)C2=C(NCC(CNC3=CC=C(C=C3)C(=O)N[C@@H](CCC(O)=O)C(O)=O)N2)N1

>  <JCHEM_ACCEPTOR_COUNT>
12

>  <JCHEM_DONOR_COUNT>
8

>  <JCHEM_ACIDIC_PKA>
3.51

>  <JCHEM_BASIC_PKA>
3.58

>  <JCHEM_PHYSIOLOGICAL_CHARGE>
-2

>  <ALOGPS_LOGP>
-0.96

>  <JCHEM_LOGP>
-4.2

>  <ALOGPS_LOGS>
-3.2

>  <JCHEM_POLARIZABILITY>
42.95

>  <JCHEM_POLAR_SURFACE_AREA>
207.27

>  <JCHEM_REFRACTIVITY>
121.39

>  <JCHEM_ROTATABLE_BOND_COUNT>
9

>  <ALOGPS_SOLUBILITY>
2.69e-01 g/l

$$$$
117
  Mrv0541 02231214272D          

 11 11  0  0  1  0            999 V2000
    5.7803    0.3693    0.0000 O   0  0  0  0  0  0  0  0  0  0  0  0
    5.3388   -0.9898    0.0000 O   0  0  0  0  0  0  0  0  0  0  0  0
    2.3174   -0.7099    0.0000 N   0  0  0  0  0  0  0  0  0  0  0  0
    4.2111    0.8791    0.0000 N   0  0  0  0  0  0  0  0  0  0  0  0
    1.9049    0.5597    0.0000 N   0  0  0  0  0  0  0  0  0  0  0  0
    3.7695   -0.4799    0.0000 C   0  0  0  0  0  0  0  0  0  0  0  0
    4.3826    0.0721    0.0000 C   0  0  1  0  0  0  0  0  0  0  0  0
    2.9849   -0.2250    0.0000 C   0  0  0  0  0  0  0  0  0  0  0  0
    5.1672   -0.1828    0.0000 C   0  0  0  0  0  0  0  0  0  0  0  0
    2.7299    0.5597    0.0000 C   0  0  0  0  0  0  0  0  0  0  0  0
    1.6500   -0.2250    0.0000 C   0  0  0  0  0  0  0  0  0  0  0  0
  1  9  1  0  0  0  0
  2  9  2  0  0  0  0
  3  8  1  0  0  0  0
  3 11  1  0  0  0  0
  7  4  1  6  0  0  0
  5 10  1  0  0  0  0
  5 11  2  0  0  0  0
  6  7  1  0  0  0  0
  6  8  1  0  0  0  0
  7  9  1  0  0  0  0
  8 10  2  0  0  0  0
M  END
>  <DRUGBANK_ID>
DB00117

>  <DRUG_GROUPS>
approved; nutraceutical

>  <GENERIC_NAME>
L-Histidine

>  <SYNONYMS>
(S)-4-(2-Amino-2-carboxyethyl)imidazole; (S)-a-Amino-1H-imidazole-4-propanoic acid; (S)-alpha-Amino-1H-imidazole-4-propionic acid; (S)-Histidine; Glyoxaline-5-alanine; Histidine; L-(-)-Histidine

>  <CHEMICAL_FORMULA>
C6H9N3O2

>  <MOLECULAR_WEIGHT>
155.1546

>  <EXACT_MASS>
155.069476547

>  <IUPAC_NAME>
(2S)-2-amino-3-(1H-imidazol-5-yl)propanoic acid

>  <INCHI_IDENTIFIER>
InChI=1S/C6H9N3O2/c7-5(6(10)11)1-4-2-8-3-9-4/h2-3,5H,1,7H2,(H,8,9)(H,10,11)/t5-/m0/s1

>  <INCHI_KEY>
InChIKey=HNDVDQJCIGZPNO-YFKPBYRVSA-N

>  <SMILES>
N[C@@H](CC1=CN=CN1)C(O)=O

>  <JCHEM_ACCEPTOR_COUNT>
4

>  <JCHEM_DONOR_COUNT>
3

>  <JCHEM_ACIDIC_PKA>
1.85

>  <JCHEM_BASIC_PKA>
9.44

>  <JCHEM_PHYSIOLOGICAL_CHARGE>
0

>  <ALOGPS_LOGP>
-3.1

>  <JCHEM_LOGP>
-3.6

>  <ALOGPS_LOGS>
-0.4

>  <JCHEM_POLARIZABILITY>
14.67

>  <JCHEM_POLAR_SURFACE_AREA>
92

>  <JCHEM_REFRACTIVITY>
38.06

>  <JCHEM_ROTATABLE_BOND_COUNT>
3

>  <ALOGPS_SOLUBILITY>
6.20e+01 g/l

$$$$
118
  Mrv0541 02231214272D          

 27 29  0  0  1  0            999 V2000
    6.3238    1.4141    0.0000 S   0  3  0  0  0  0  0  0  0  0  0  0
    4.9010    0.4421    0.0000 O   0  0  0  0  0  0  0  0  0  0  0  0
    3.8647    2.3086    0.0000 O   0  0  0  0  0  0  0  0  0  0  0  0
    2.8071    0.8583    0.0000 O   0  0  0  0  0  0  0  0  0  0  0  0
    9.8349    2.1917    0.0000 O   0  0  0  0  0  0  0  0  0  0  0  0
    9.2515    0.8872    0.0000 O   0  0  0  0  0  0  0  0  0  0  0  0
    3.8597   -0.5957    0.0000 N   0  0  0  0  0  0  0  0  0  0  0  0
    3.8597   -1.9234    0.0000 N   0  0  0  0  0  0  0  0  0  0  0  0
    2.3645   -0.4345    0.0000 N   0  0  0  0  0  0  0  0  0  0  0  0
    8.3287    2.8654    0.0000 N   0  0  0  0  0  0  0  0  0  0  0  0
    1.6500   -1.6721    0.0000 N   0  0  0  0  0  0  0  0  0  0  0  0
    2.3645   -2.9096    0.0000 N   0  0  0  0  0  0  0  0  0  0  0  0
    4.9025    1.2671    0.0000 C   0  0  1  0  0  0  0  0  0  0  0  0
    4.1182    1.5235    0.0000 C   0  0  2  0  0  0  0  0  0  0  0  0
    3.6321    0.8569    0.0000 C   0  0  2  0  0  0  0  0  0  0  0  0
    4.1159    0.1886    0.0000 C   0  0  1  0  0  0  0  0  0  0  0  0
    5.5707    1.7509    0.0000 C   0  0  0  0  0  0  0  0  0  0  0  0
    6.9922    1.8979    0.0000 C   0  0  0  0  0  0  0  0  0  0  0  0
    3.0790   -0.8470    0.0000 C   0  0  0  0  0  0  0  0  0  0  0  0
    4.3411   -1.2595    0.0000 C   0  0  0  0  0  0  0  0  0  0  0  0
    7.7452    1.5610    0.0000 C   0  0  0  0  0  0  0  0  0  0  0  0
    6.4086    0.5934    0.0000 C   0  0  0  0  0  0  0  0  0  0  0  0
    3.0790   -1.6721    0.0000 C   0  0  0  0  0  0  0  0  0  0  0  0
    8.4135    2.0447    0.0000 C   0  0  1  0  0  0  0  0  0  0  0  0
    2.3645   -2.0846    0.0000 C   0  0  0  0  0  0  0  0  0  0  0  0
    9.1667    1.7079    0.0000 C   0  0  0  0  0  0  0  0  0  0  0  0
    1.6500   -0.8470    0.0000 C   0  0  0  0  0  0  0  0  0  0  0  0
  1 17  1  0  0  0  0
  1 18  1  0  0  0  0
  1 22  1  0  0  0  0
  2 13  1  0  0  0  0
  2 16  1  0  0  0  0
 14  3  1  6  0  0  0
 15  4  1  6  0  0  0
  5 26  1  0  0  0  0
  6 26  2  0  0  0  0
 16  7  1  1  0  0  0
  7 19  1  0  0  0  0
  7 20  1  0  0  0  0
  8 20  2  0  0  0  0
  8 23  1  0  0  0  0
  9 19  2  0  0  0  0
  9 27  1  0  0  0  0
 24 10  1  6  0  0  0
 11 25  1  0  0  0  0
 11 27  2  0  0  0  0
 12 25  1  0  0  0  0
 13 14  1  0  0  0  0
 13 17  1  1  0  0  0
 14 15  1  0  0  0  0
 15 16  1  0  0  0  0
 18 21  1  0  0  0  0
 19 23  1  0  0  0  0
 21 24  1  0  0  0  0
 23 25  2  0  0  0  0
 24 26  1  0  0  0  0
M  CHG  1   1   1
M  END
>  <DRUGBANK_ID>
DB00118

>  <DRUG_GROUPS>
approved; nutraceutical

>  <GENERIC_NAME>
S-Adenosylmethionine

>  <SYNONYMS>
Acylcarnitine; AdoMet; S-adenosyl-L-methionine; SAM; SAM-e; SAMe

>  <BRANDS>
Sam-Sulfate; SAMe Rx-Mood

>  <CHEMICAL_FORMULA>
C15H23N6O5S

>  <MOLECULAR_WEIGHT>
399.445

>  <EXACT_MASS>
399.145063566

>  <IUPAC_NAME>
[(3S)-3-amino-3-carboxypropyl]({[(2S,3S,4R,5R)-5-(6-amino-9H-purin-9-yl)-3,4-dihydroxyoxolan-2-yl]methyl})methylsulfanium

>  <INCHI_IDENTIFIER>
InChI=1S/C15H22N6O5S/c1-27(3-2-7(16)15(24)25)4-8-10(22)11(23)14(26-8)21-6-20-9-12(17)18-5-19-13(9)21/h5-8,10-11,14,22-23H,2-4,16H2,1H3,(H2-,17,18,19,24,25)/p+1/t7-,8+,10+,11+,14+,27?/m0/s1

>  <INCHI_KEY>
InChIKey=MEFKEPWMEQBLKI-AIRLBKTGSA-O

>  <SMILES>
C[S+](CC[C@H](N)C(O)=O)C[C@H]1O[C@H]([C@H](O)[C@@H]1O)N1C=NC2=C(N)N=CN=C12

>  <JCHEM_ACCEPTOR_COUNT>
10

>  <JCHEM_DONOR_COUNT>
5

>  <JCHEM_ACIDIC_PKA>
1.71

>  <JCHEM_BASIC_PKA>
9.41

>  <JCHEM_PHYSIOLOGICAL_CHARGE>
1

>  <ALOGPS_LOGP>
-2

>  <JCHEM_LOGP>
-5.3

>  <ALOGPS_LOGS>
-2.6

>  <JCHEM_POLARIZABILITY>
40.37

>  <JCHEM_POLAR_SURFACE_AREA>
182.63

>  <JCHEM_REFRACTIVITY>
96.23

>  <JCHEM_ROTATABLE_BOND_COUNT>
7

>  <ALOGPS_SOLUBILITY>
1.19e+00 g/l

$$$$

  Mrv0541 02231214272D          

  6  5  0  0  0  0            999 V2000
    2.0928    0.2063    0.0000 O   0  0  0  0  0  0  0  0  0  0  0  0
    3.5217    1.0312    0.0000 O   0  0  0  0  0  0  0  0  0  0  0  0
    2.8072   -1.0312    0.0000 O   0  0  0  0  0  0  0  0  0  0  0  0
    3.5217    0.2063    0.0000 C   0  0  0  0  0  0  0  0  0  0  0  0
    4.2361   -0.2063    0.0000 C   0  0  0  0  0  0  0  0  0  0  0  0
    2.8072   -0.2063    0.0000 C   0  0  0  0  0  0  0  0  0  0  0  0
  1  6  1  0  0  0  0
  2  4  2  0  0  0  0
  3  6  2  0  0  0  0
  4  5  1  0  0  0  0
  4  6  1  0  0  0  0
M  END
>  <DRUGBANK_ID>
DB00119

>  <DRUG_GROUPS>
approved; nutraceutical

>  <GENERIC_NAME>
Pyruvic acid

>  <SYNONYMS>
2-Oxopropanoate; 2-Oxopropanoic acid; 2-Oxopropionic acid; a-Ketopropionic acid; Acetylformic acid; BTS; Pyroracemic acid; Pyruvate

>  <CHEMICAL_FORMULA>
C3H4O3

>  <MOLECULAR_WEIGHT>
88.0621

>  <EXACT_MASS>
88.016043994

>  <IUPAC_NAME>
2-oxopropanoic acid

>  <INCHI_IDENTIFIER>
InChI=1S/C3H4O3/c1-2(4)3(5)6/h1H3,(H,5,6)

>  <INCHI_KEY>
InChIKey=LCTONWCANYUPML-UHFFFAOYSA-N

>  <SMILES>
CC(=O)C(O)=O

>  <JCHEM_ACCEPTOR_COUNT>
3

>  <JCHEM_DONOR_COUNT>
1

>  <JCHEM_ACIDIC_PKA>
2.93

>  <JCHEM_BASIC_PKA>
-9.6

>  <JCHEM_PHYSIOLOGICAL_CHARGE>
-1

>  <ALOGPS_LOGP>
-0.38

>  <JCHEM_LOGP>
0.066

>  <ALOGPS_LOGS>
0.18

>  <JCHEM_POLARIZABILITY>
7.31

>  <JCHEM_POLAR_SURFACE_AREA>
54.37

>  <JCHEM_REFRACTIVITY>
17.99

>  <JCHEM_ROTATABLE_BOND_COUNT>
1

>  <ALOGPS_SOLUBILITY>
1.34e+02 g/l

$$$$
120
  Mrv0541 02231214272D          

 12 12  0  0  1  0            999 V2000
    3.7934    1.8067    0.0000 O   0  0  0  0  0  0  0  0  0  0  0  0
    2.3644    1.8067    0.0000 O   0  0  0  0  0  0  0  0  0  0  0  0
    3.7934    0.1568    0.0000 N   0  0  0  0  0  0  0  0  0  0  0  0
    2.3644    0.1568    0.0000 C   0  0  0  0  0  0  0  0  0  0  0  0
    3.0790    0.5692    0.0000 C   0  0  1  0  0  0  0  0  0  0  0  0
    2.3644   -0.6683    0.0000 C   0  0  0  0  0  0  0  0  0  0  0  0
    3.0790   -1.0808    0.0000 C   0  0  0  0  0  0  0  0  0  0  0  0
    1.6500   -1.0808    0.0000 C   0  0  0  0  0  0  0  0  0  0  0  0
    3.0790    1.3942    0.0000 C   0  0  0  0  0  0  0  0  0  0  0  0
    3.0790   -1.9058    0.0000 C   0  0  0  0  0  0  0  0  0  0  0  0
    1.6500   -1.9058    0.0000 C   0  0  0  0  0  0  0  0  0  0  0  0
    2.3644   -2.3182    0.0000 C   0  0  0  0  0  0  0  0  0  0  0  0
  1  9  1  0  0  0  0
  2  9  2  0  0  0  0
  5  3  1  1  0  0  0
  4  5  1  0  0  0  0
  4  6  1  0  0  0  0
  5  9  1  0  0  0  0
  6  7  2  0  0  0  0
  6  8  1  0  0  0  0
  7 10  1  0  0  0  0
  8 11  2  0  0  0  0
 10 12  2  0  0  0  0
 11 12  1  0  0  0  0
M  END
>  <DRUGBANK_ID>
DB00120

>  <DRUG_GROUPS>
approved; nutraceutical

>  <GENERIC_NAME>
L-Phenylalanine

>  <SYNONYMS>
(S)-alpha-Amino-beta-phenylpropionic acid; 3-phenyl-L-alanine; Phe; -phenyl-L-alanine

>  <CHEMICAL_FORMULA>
C9H11NO2

>  <MOLECULAR_WEIGHT>
165.1891

>  <EXACT_MASS>
165.078978601

>  <IUPAC_NAME>
(2S)-2-amino-3-phenylpropanoic acid

>  <INCHI_IDENTIFIER>
InChI=1S/C9H11NO2/c10-8(9(11)12)6-7-4-2-1-3-5-7/h1-5,8H,6,10H2,(H,11,12)/t8-/m0/s1

>  <INCHI_KEY>
InChIKey=COLNVLDHVKWLRT-QMMMGPOBSA-N

>  <SMILES>
N[C@@H](CC1=CC=CC=C1)C(O)=O

>  <JCHEM_ACCEPTOR_COUNT>
3

>  <JCHEM_DONOR_COUNT>
2

>  <JCHEM_ACIDIC_PKA>
2.47

>  <JCHEM_BASIC_PKA>
9.45

>  <JCHEM_PHYSIOLOGICAL_CHARGE>
0

>  <ALOGPS_LOGP>
-1.4

>  <JCHEM_LOGP>
-1.2

>  <ALOGPS_LOGS>
-1.6

>  <JCHEM_POLARIZABILITY>
17.03

>  <JCHEM_POLAR_SURFACE_AREA>
63.32

>  <JCHEM_REFRACTIVITY>
45.12

>  <JCHEM_ROTATABLE_BOND_COUNT>
3

>  <ALOGPS_SOLUBILITY>
4.14e+00 g/l

$$$$
121
  Mrv0541 02231214272D          

 18 19  0  0  1  0            999 V2000
    5.0072   -1.4297    0.0000 S   0  0  0  0  0  0  0  0  0  0  0  0
    1.6501   -1.4297    0.0000 O   0  0  0  0  0  0  0  0  0  0  0  0
    7.7167    2.0975    0.0000 O   0  0  0  0  0  0  0  0  0  0  0  0
    6.3583    2.5414    0.0000 O   0  0  0  0  0  0  0  0  0  0  0  0
    2.9603   -0.7622    0.0000 N   0  0  0  0  0  0  0  0  0  0  0  0
    2.9603   -2.0972    0.0000 N   0  0  0  0  0  0  0  0  0  0  0  0
    3.7448   -1.0172    0.0000 C   0  0  1  0  0  0  0  0  0  0  0  0
    3.7448   -1.8423    0.0000 C   0  0  2  0  0  0  0  0  0  0  0  0
    4.5257   -0.7658    0.0000 C   0  0  2  0  0  0  0  0  0  0  0  0
    4.5257   -2.0937    0.0000 C   0  0  0  0  0  0  0  0  0  0  0  0
    4.7819    0.0186    0.0000 C   0  0  0  0  0  0  0  0  0  0  0  0
    5.5893    0.1887    0.0000 C   0  0  0  0  0  0  0  0  0  0  0  0
    2.4752   -1.4297    0.0000 C   0  0  0  0  0  0  0  0  0  0  0  0
    5.8456    0.9729    0.0000 C   0  0  0  0  0  0  0  0  0  0  0  0
    6.6530    1.1431    0.0000 C   0  0  0  0  0  0  0  0  0  0  0  0
    6.9093    1.9273    0.0000 C   0  0  0  0  0  0  0  0  0  0  0  0
    3.7458   -0.3571    0.0000 H   0  0  0  0  0  0  0  0  0  0  0  0
    3.7458   -2.5023    0.0000 H   0  0  0  0  0  0  0  0  0  0  0  0
  1  9  1  0  0  0  0
  1 10  1  0  0  0  0
  2 13  2  0  0  0  0
  3 16  1  0  0  0  0
  4 16  2  0  0  0  0
  5  7  1  0  0  0  0
  5 13  1  0  0  0  0
  6  8  1  0  0  0  0
  6 13  1  0  0  0  0
  7  8  1  0  0  0  0
  7  9  1  0  0  0  0
  7 17  1  1  0  0  0
  8 10  1  0  0  0  0
  8 18  1  1  0  0  0
  9 11  1  6  0  0  0
 11 12  1  0  0  0  0
 12 14  1  0  0  0  0
 14 15  1  0  0  0  0
 15 16  1  0  0  0  0
M  END
>  <DRUGBANK_ID>
DB00121

>  <DRUG_GROUPS>
approved; nutraceutical

>  <GENERIC_NAME>
Biotin

>  <SYNONYMS>
(+)-cis-Hexahydro-2-oxo-1H-thieno[3,4]imidazole-4-valeric acid; cis-(+)-Tetrahydro-2-oxothieno[3,4]imidazoline-4-valeric acid; Coenzyme R; D-Biotin; D(+)-Biotin; Vitamin B7; Vitamin H

>  <BRANDS>
Biodermatin; Bioepiderm; Bios II; Biotin Forte; Factor S; Lutavit H2; Meribin; Rovimix H2

>  <CHEMICAL_FORMULA>
C10H16N2O3S

>  <MOLECULAR_WEIGHT>
244.311

>  <EXACT_MASS>
244.088163078

>  <IUPAC_NAME>
5-[(3aS,4S,6aR)-2-oxo-hexahydro-1H-thieno[3,4-d]imidazolidin-4-yl]pentanoic acid

>  <INCHI_IDENTIFIER>
InChI=1S/C10H16N2O3S/c13-8(14)4-2-1-3-7-9-6(5-16-7)11-10(15)12-9/h6-7,9H,1-5H2,(H,13,14)(H2,11,12,15)/t6-,7-,9-/m0/s1

>  <INCHI_KEY>
InChIKey=YBJHBAHKTGYVGT-ZKWXMUAHSA-N

>  <SMILES>
[H][C@]12CS[C@@H](CCCCC(O)=O)[C@@]1([H])NC(=O)N2

>  <JCHEM_ACCEPTOR_COUNT>
3

>  <JCHEM_DONOR_COUNT>
3

>  <JCHEM_ACIDIC_PKA>
4.4

>  <JCHEM_BASIC_PKA>
-1.9

>  <JCHEM_PHYSIOLOGICAL_CHARGE>
-1

>  <ALOGPS_LOGP>
0.17

>  <JCHEM_LOGP>
0.32

>  <ALOGPS_LOGS>
-2.3

>  <JCHEM_POLARIZABILITY>
24.92

>  <JCHEM_POLAR_SURFACE_AREA>
78.43

>  <JCHEM_REFRACTIVITY>
60.05

>  <JCHEM_ROTATABLE_BOND_COUNT>
5

>  <ALOGPS_SOLUBILITY>
1.22e+00 g/l

$$$$
122
  Mrv0541 02231214272D          

  7  6  0  0  0  0            999 V2000
    4.5080    0.4125    0.0000 O   0  0  0  0  0  0  0  0  0  0  0  0
    2.3645    0.0000    0.0000 N   0  3  0  0  0  0  0  0  0  0  0  0
    3.0791    0.4125    0.0000 C   0  0  0  0  0  0  0  0  0  0  0  0
    1.6501   -0.4125    0.0000 C   0  0  0  0  0  0  0  0  0  0  0  0
    1.9520    0.7145    0.0000 C   0  0  0  0  0  0  0  0  0  0  0  0
    2.7770   -0.7145    0.0000 C   0  0  0  0  0  0  0  0  0  0  0  0
    3.7936    0.0000    0.0000 C   0  0  0  0  0  0  0  0  0  0  0  0
  1  7  1  0  0  0  0
  2  3  1  0  0  0  0
  2  4  1  0  0  0  0
  2  5  1  0  0  0  0
  2  6  1  0  0  0  0
  3  7  1  0  0  0  0
M  CHG  1   2   1
M  END
>  <DRUGBANK_ID>
DB00122

>  <DRUG_GROUPS>
approved; nutraceutical

>  <GENERIC_NAME>
Choline

>  <SYNONYMS>
Bilineurine; Choline cation; Choline ion; Cholinum; N-trimethylethanolamine; N,N,N-trimethylethanol-ammonium; trimethylethanolamine

>  <CHEMICAL_FORMULA>
C5H14NO

>  <MOLECULAR_WEIGHT>
104.1708

>  <EXACT_MASS>
104.107539075

>  <IUPAC_NAME>
(2-hydroxyethyl)trimethylazanium

>  <INCHI_IDENTIFIER>
InChI=1S/C5H14NO/c1-6(2,3)4-5-7/h7H,4-5H2,1-3H3/q+1

>  <INCHI_KEY>
InChIKey=OEYIOHPDSNJKLS-UHFFFAOYSA-N

>  <SMILES>
C[N+](C)(C)CCO

>  <JCHEM_ACCEPTOR_COUNT>
1

>  <JCHEM_DONOR_COUNT>
1

>  <JCHEM_ACIDIC_PKA>
13.97

>  <JCHEM_BASIC_PKA>
-3.2

>  <JCHEM_PHYSIOLOGICAL_CHARGE>
1

>  <ALOGPS_LOGP>
-3.6

>  <JCHEM_LOGP>
-4.7

>  <ALOGPS_LOGS>
-1.6

>  <JCHEM_POLARIZABILITY>
12.57

>  <JCHEM_POLAR_SURFACE_AREA>
20.23

>  <JCHEM_REFRACTIVITY>
42.19

>  <JCHEM_ROTATABLE_BOND_COUNT>
2

>  <ALOGPS_SOLUBILITY>
3.61e+00 g/l

$$$$
123
  Mrv0541 02231214272D          

 10  9  0  0  1  0            999 V2000
    4.9509    1.1592    0.0000 O   0  0  0  0  0  0  0  0  0  0  0  0
    4.2365    2.3967    0.0000 O   0  0  0  0  0  0  0  0  0  0  0  0
    2.8075    1.5717    0.0000 N   0  0  0  0  0  0  0  0  0  0  0  0
    2.0930   -2.1409    0.0000 N   0  0  0  0  0  0  0  0  0  0  0  0
    2.8075   -0.0784    0.0000 C   0  0  0  0  0  0  0  0  0  0  0  0
    3.5220    0.3341    0.0000 C   0  0  0  0  0  0  0  0  0  0  0  0
    2.8075   -0.9034    0.0000 C   0  0  0  0  0  0  0  0  0  0  0  0
    3.5220    1.1592    0.0000 C   0  0  1  0  0  0  0  0  0  0  0  0
    2.0930   -1.3159    0.0000 C   0  0  0  0  0  0  0  0  0  0  0  0
    4.2365    1.5717    0.0000 C   0  0  0  0  0  0  0  0  0  0  0  0
  1 10  1  0  0  0  0
  2 10  2  0  0  0  0
  8  3  1  6  0  0  0
  4  9  1  0  0  0  0
  5  6  1  0  0  0  0
  5  7  1  0  0  0  0
  6  8  1  0  0  0  0
  7  9  1  0  0  0  0
  8 10  1  0  0  0  0
M  END
>  <DRUGBANK_ID>
DB00123

>  <DRUG_GROUPS>
approved; nutraceutical

>  <GENERIC_NAME>
L-Lysine

>  <SYNONYMS>
(S)-2,6-diaminohexanoic acid; (S)-lysine; (S)-,-diaminocaproic acid; L-lys; LYS; lysine acid

>  <BRANDS>
Enisyl

>  <CHEMICAL_FORMULA>
C6H14N2O2

>  <MOLECULAR_WEIGHT>
146.1876

>  <EXACT_MASS>
146.105527702

>  <IUPAC_NAME>
(2S)-2,6-diaminohexanoic acid

>  <INCHI_IDENTIFIER>
InChI=1S/C6H14N2O2/c7-4-2-1-3-5(8)6(9)10/h5H,1-4,7-8H2,(H,9,10)/t5-/m0/s1

>  <INCHI_KEY>
InChIKey=KDXKERNSBIXSRK-YFKPBYRVSA-N

>  <SMILES>
NCCCC[C@H](N)C(O)=O

>  <JCHEM_ACCEPTOR_COUNT>
4

>  <JCHEM_DONOR_COUNT>
3

>  <JCHEM_ACIDIC_PKA>
2.74

>  <JCHEM_BASIC_PKA>
10.29

>  <JCHEM_PHYSIOLOGICAL_CHARGE>
1

>  <ALOGPS_LOGP>
-3.8

>  <JCHEM_LOGP>
-3.2

>  <ALOGPS_LOGS>
-0.14

>  <JCHEM_POLARIZABILITY>
15.84

>  <JCHEM_POLAR_SURFACE_AREA>
89.34

>  <JCHEM_REFRACTIVITY>
37.81

>  <JCHEM_ROTATABLE_BOND_COUNT>
5

>  <ALOGPS_SOLUBILITY>
1.05e+02 g/l

$$$$
 
  Mrv0541 02231214272D          
 
 12 11  0  0  1  0            999 V2000
   14.1789  -10.6043    0.0000 C   0  0  0  0  0  0  0  0  0  0  0  0
   14.8861  -11.0267    0.0000 C   0  0  0  0  0  0  0  0  0  0  0  0
   13.4544  -11.0061    0.0000 C   0  0  1  0  0  0  0  0  0  0  0  0
   15.6071  -10.6250    0.0000 C   0  0  0  0  0  0  0  0  0  0  0  0
   12.7815  -10.5666    0.0000 C   0  0  0  0  0  0  0  0  0  0  0  0
   13.4818  -11.8301    0.0000 N   0  0  0  0  0  0  0  0  0  0  0  0
   16.3178  -11.0439    0.0000 N   0  0  0  0  0  0  0  0  0  0  0  0
   12.0605  -10.9683    0.0000 O   0  0  0  0  0  0  0  0  0  0  0  0
   12.7540   -9.7392    0.0000 O   0  0  0  0  0  0  0  0  0  0  0  0
   17.0389  -10.6455    0.0000 C   0  0  0  0  0  0  0  0  0  0  0  0
   17.7461  -11.0644    0.0000 N   0  0  0  0  0  0  0  0  0  0  0  0
   17.0492   -9.8182    0.0000 N   0  0  0  0  0  0  0  0  0  0  0  0
  1  2  1  0  0  0  0
  1  3  1  0  0  0  0
  2  4  1  0  0  0  0
  3  5  1  0  0  0  0
  3  6  1  6  0  0  0
  4  7  1  0  0  0  0
  5  8  1  0  0  0  0
  5  9  2  0  0  0  0
  7 10  1  0  0  0  0
 10 11  1  0  0  0  0
 10 12  2  0  0  0  0
M  END
>  <DRUGBANK_ID>
DB00125

>  <DRUG_GROUPS>
approved; nutraceutical

>  <GENERIC_NAME>
L-Arginine

>  <SYNONYMS>
(S)-2-Amino-5-guanidinovaleric acid; Arg; L-(+)-Arginine; L-Arg

>  <BRANDS>
Argamine; Argivene; Detoxargin; Levargin; Minophagen A; R-Gene 10

>  <CHEMICAL_FORMULA>
C6H14N4O2

>  <MOLECULAR_WEIGHT>
174.201

>  <EXACT_MASS>
174.111675712

>  <IUPAC_NAME>
(2S)-2-amino-5-carbamimidamidopentanoic acid

>  <INCHI_IDENTIFIER>
InChI=1S/C6H14N4O2/c7-4(5(11)12)2-1-3-10-6(8)9/h4H,1-3,7H2,(H,11,12)(H4,8,9,10)/t4-/m0/s1

>  <INCHI_KEY>
InChIKey=ODKSFYDXXFIFQN-BYPYZUCNSA-N

>  <SMILES>
N[C@@H](CCCNC(N)=N)C(O)=O

>  <JCHEM_ACCEPTOR_COUNT>
6

>  <JCHEM_DONOR_COUNT>
5

>  <JCHEM_ACIDIC_PKA>
2.41

>  <JCHEM_BASIC_PKA>
12.41

>  <JCHEM_PHYSIOLOGICAL_CHARGE>
1

>  <ALOGPS_LOGP>
-3.5

>  <JCHEM_LOGP>
-3.2

>  <ALOGPS_LOGS>
-1.9

>  <JCHEM_POLARIZABILITY>
17.94

>  <JCHEM_POLAR_SURFACE_AREA>
125.22

>  <JCHEM_REFRACTIVITY>
53.92

>  <JCHEM_ROTATABLE_BOND_COUNT>
5

>  <ALOGPS_SOLUBILITY>
2.28e+00 g/l

$$$$

  Mrv0541 02231214272D          

 13 13  0  0  1  0            999 V2000
    0.0000    0.0000    0.0000 O   0  0  0  0  0  0  0  0  0  0  0  0
   -0.8974   -1.9370    0.0000 O   0  0  0  0  0  0  0  0  0  0  0  0
    0.8974   -1.9370    0.0000 O   0  0  0  0  0  0  0  0  0  0  0  0
    0.6674   -0.4849    0.0000 C   0  0  0  0  0  0  0  0  0  0  0  0
    1.4521   -0.2300    0.0000 O   0  0  0  0  0  0  0  0  0  0  0  0
    0.4125   -1.2695    0.0000 C   0  0  0  0  0  0  0  0  0  0  0  0
   -0.4125   -1.2695    0.0000 C   0  0  0  0  0  0  0  0  0  0  0  0
   -2.8109   -0.0724    0.0000 O   0  0  0  0  0  0  0  0  0  0  0  0
   -2.0964   -0.4849    0.0000 C   0  0  0  0  0  0  0  0  0  0  0  0
   -1.3819   -0.0724    0.0000 C   0  0  2  0  0  0  0  0  0  0  0  0
   -1.3819    0.7526    0.0000 O   0  0  0  0  0  0  0  0  0  0  0  0
   -0.6674   -0.4849    0.0000 C   0  0  1  0  0  0  0  0  0  0  0  0
   -1.2508   -1.0683    0.0000 H   0  0  0  0  0  0  0  0  0  0  0  0
  1  4  1  0  0  0  0
 12  1  1  0  0  0  0
  7  2  1  0  0  0  0
  6  3  1  0  0  0  0
  4  5  2  0  0  0  0
  4  6  1  0  0  0  0
  6  7  2  0  0  0  0
 12  7  1  0  0  0  0
  8  9  1  0  0  0  0
  9 10  1  0  0  0  0
 12 10  1  0  0  0  0
 10 11  1  6  0  0  0
 12 13  1  6  0  0  0
M  END
>  <DRUGBANK_ID>
DB00126

>  <DRUG_GROUPS>
approved; nutraceutical

>  <GENERIC_NAME>
Vitamin C

>  <SYNONYMS>
Ascorbate; Ascorbic Acid; L-Ascorbate; L-Ascorbic Acid; L-Lyxoascorbic Acid; L-Xyloascorbic Acid

>  <BRANDS>
Adenex; Allercorb; Antiscorbic Vitamin; Antiscorbutic Vitamin; Arco-Cee; Ascoltin; Ascor-B.I.D.; Ascorb; Ascorbajen; Ascorbicab; Ascorbicap; Ascorbicin; Ascorbin; Ascorbutina; Ascorin; Ascorteal; Ascorvit; C-Level; C-Long; C-Quin; C-Span; C-Vimin; Cantan; Cantaxin; Catavin C; Ce Lent; Cebicure; Cebid; Cebion; Cebione; Cecon; Cee-Caps Td; Cee-Vite; Cegiolan; Ceglion; Celaskon; Celin; Cemagyl; Cemill; Cenetone; Cenolate; Cereon; Cergona; Cescorbat; Cetamid; Cetane; Cetane-Caps Tc; Cetane-Caps Td; Cetebe; Cetemican; Cevalin; Cevatine; Cevex; Cevi-Bid; Cevimin; Cevital; Cevitamic Acid; Cevitamin; Cevitan; Cevitex; Cewin; Ciamin; Cipca; Citriscorb; Colascor; Concemin; Davitamon C; Duoscorb; Hicee; Hybrin; IDO-C; Kyselina Askorbova; Laroscorbine; Lemascorb; Liqui-Cee; Meri-C; Natrascorb; Planavit C; Proscorbin; Redoxon; Ribena; Roscorbic; Scorbacid; Scorbu-C; Secorbate; Sodascorbate; Testascorbic; Vicelat; Vicin; Vicomin C; Viforcit; Viscorin; Vitace; Vitacee; Vitacimin; Vitacin; Vitamisin; Vitascorbol; Xitix

>  <CHEMICAL_FORMULA>
C6H8O6

>  <MOLECULAR_WEIGHT>
176.1241

>  <EXACT_MASS>
176.032087988

>  <IUPAC_NAME>
(5R)-5-[(1S)-1,2-dihydroxyethyl]-3,4-dihydroxy-2,5-dihydrofuran-2-one

>  <INCHI_IDENTIFIER>
InChI=1S/C6H8O6/c7-1-2(8)5-3(9)4(10)6(11)12-5/h2,5,7-10H,1H2/t2-,5+/m0/s1

>  <INCHI_KEY>
InChIKey=CIWBSHSKHKDKBQ-JLAZNSOCSA-N

>  <SMILES>
[H][C@@]1(OC(=O)C(O)=C1O)[C@@H](O)CO

>  <JCHEM_ACCEPTOR_COUNT>
5

>  <JCHEM_DONOR_COUNT>
4

>  <JCHEM_ACIDIC_PKA>
4.36

>  <JCHEM_BASIC_PKA>
-3

>  <JCHEM_PHYSIOLOGICAL_CHARGE>
-1

>  <ALOGPS_LOGP>
-1.6

>  <JCHEM_LOGP>
-1.9

>  <ALOGPS_LOGS>
0.14

>  <JCHEM_POLARIZABILITY>
14.93

>  <JCHEM_POLAR_SURFACE_AREA>
107.22

>  <JCHEM_REFRACTIVITY>
37.03

>  <JCHEM_ROTATABLE_BOND_COUNT>
2

>  <ALOGPS_SOLUBILITY>
2.45e+02 g/l

$$$$
127
  Mrv0541 02231214272D          

 14 13  0  0  0  0            999 V2000
    4.9504    0.2063    0.0000 N   0  0  0  0  0  0  0  0  0  0  0  0
    8.5226   -0.2063    0.0000 N   0  0  0  0  0  0  0  0  0  0  0  0
    2.0928    0.2063    0.0000 N   0  0  0  0  0  0  0  0  0  0  0  0
   11.3804   -0.2063    0.0000 N   0  0  0  0  0  0  0  0  0  0  0  0
    6.3793    0.2063    0.0000 C   0  0  0  0  0  0  0  0  0  0  0  0
    7.0938   -0.2063    0.0000 C   0  0  0  0  0  0  0  0  0  0  0  0
    5.6650   -0.2063    0.0000 C   0  0  0  0  0  0  0  0  0  0  0  0
    7.8082    0.2063    0.0000 C   0  0  0  0  0  0  0  0  0  0  0  0
    4.2361   -0.2063    0.0000 C   0  0  0  0  0  0  0  0  0  0  0  0
    9.2371    0.2063    0.0000 C   0  0  0  0  0  0  0  0  0  0  0  0
    3.5217    0.2063    0.0000 C   0  0  0  0  0  0  0  0  0  0  0  0
    9.9515   -0.2063    0.0000 C   0  0  0  0  0  0  0  0  0  0  0  0
    2.8072   -0.2063    0.0000 C   0  0  0  0  0  0  0  0  0  0  0  0
   10.6658    0.2063    0.0000 C   0  0  0  0  0  0  0  0  0  0  0  0
  1  7  1  0  0  0  0
  1  9  1  0  0  0  0
  2  8  1  0  0  0  0
  2 10  1  0  0  0  0
  3 13  1  0  0  0  0
  4 14  1  0  0  0  0
  5  6  1  0  0  0  0
  5  7  1  0  0  0  0
  6  8  1  0  0  0  0
  9 11  1  0  0  0  0
 10 12  1  0  0  0  0
 11 13  1  0  0  0  0
 12 14  1  0  0  0  0
M  END
>  <DRUGBANK_ID>
DB00127

>  <DRUG_GROUPS>
approved; nutraceutical

>  <GENERIC_NAME>
Spermine

>  <SYNONYMS>
1, 4-Bis(aminopropyl)butanediamine; 4,9-Diaza-1,12-dodecanediamine; 4,9-Diazadodecane-1,12-diamine; Spermin; Spermine dihydrate

>  <BRANDS>
Gerontine; Musculamine; Neuridine

>  <CHEMICAL_FORMULA>
C10H26N4

>  <MOLECULAR_WEIGHT>
202.3402

>  <EXACT_MASS>
202.215746852

>  <IUPAC_NAME>
(3-aminopropyl)({4-[(3-aminopropyl)amino]butyl})amine

>  <INCHI_IDENTIFIER>
InChI=1S/C10H26N4/c11-5-3-9-13-7-1-2-8-14-10-4-6-12/h13-14H,1-12H2

>  <INCHI_KEY>
InChIKey=PFNFFQXMRSDOHW-UHFFFAOYSA-N

>  <SMILES>
NCCCNCCCCNCCCN

>  <JCHEM_ACCEPTOR_COUNT>
4

>  <JCHEM_DONOR_COUNT>
4

>  <JCHEM_BASIC_PKA>
11.1

>  <JCHEM_PHYSIOLOGICAL_CHARGE>
4

>  <ALOGPS_LOGP>
-0.66

>  <JCHEM_LOGP>
-1.5

>  <ALOGPS_LOGS>
-2

>  <JCHEM_POLARIZABILITY>
26.69

>  <JCHEM_POLAR_SURFACE_AREA>
76.1

>  <JCHEM_REFRACTIVITY>
62.56

>  <JCHEM_ROTATABLE_BOND_COUNT>
11

>  <ALOGPS_SOLUBILITY>
2.19e+00 g/l

$$$$
128
  Mrv0541 02231214282D          

  9  8  0  0  1  0            999 V2000
    5.6655   -0.0784    0.0000 O   0  0  0  0  0  0  0  0  0  0  0  0
    2.0930    0.3341    0.0000 O   0  0  0  0  0  0  0  0  0  0  0  0
    4.9509    1.1592    0.0000 O   0  0  0  0  0  0  0  0  0  0  0  0
    2.8075   -0.9034    0.0000 O   0  0  0  0  0  0  0  0  0  0  0  0
    4.2365   -0.9034    0.0000 N   0  0  0  0  0  0  0  0  0  0  0  0
    4.2365   -0.0784    0.0000 C   0  0  1  0  0  0  0  0  0  0  0  0
    3.5220    0.3341    0.0000 C   0  0  0  0  0  0  0  0  0  0  0  0
    4.9509    0.3341    0.0000 C   0  0  0  0  0  0  0  0  0  0  0  0
    2.8075   -0.0784    0.0000 C   0  0  0  0  0  0  0  0  0  0  0  0
  1  8  1  0  0  0  0
  2  9  1  0  0  0  0
  3  8  2  0  0  0  0
  4  9  2  0  0  0  0
  6  5  1  1  0  0  0
  6  7  1  0  0  0  0
  6  8  1  0  0  0  0
  7  9  1  0  0  0  0
M  END
>  <DRUGBANK_ID>
DB00128

>  <DRUG_GROUPS>
approved; nutraceutical

>  <GENERIC_NAME>
L-Aspartic Acid

>  <SYNONYMS>
(+)-Aspartic acid; (2S)-Aspartic acid; (L)-Aspartic acid; (S)-Aminobutanedioic acid; (S)-Aspartic acid; Acide aspartique [INN-French]; Acido aspartico [INN-Spanish]; Acidum asparticum; Aminosuccinic acid; Asparagic acid; Asparaginic acid; Asparaginsaeure [German]; Aspartate; Aspartic acid; H-Asp-OH; L-(+)-Aspartic acid; L-2-Aminobutanedioic acid; L-Aminosuccinic acid; L-Asparagic acid; L-Asparaginic acid; L-Asparaginsaeure; L-Asparaginsyra; L-Aspartinsaeure

>  <BRANDS>
Aspatofort

>  <CHEMICAL_FORMULA>
C4H7NO4

>  <MOLECULAR_WEIGHT>
133.1027

>  <EXACT_MASS>
133.037507717

>  <IUPAC_NAME>
(2S)-2-aminobutanedioic acid

>  <INCHI_IDENTIFIER>
InChI=1S/C4H7NO4/c5-2(4(8)9)1-3(6)7/h2H,1,5H2,(H,6,7)(H,8,9)/t2-/m0/s1

>  <INCHI_KEY>
InChIKey=CKLJMWTZIZZHCS-REOHCLBHSA-N

>  <SMILES>
N[C@@H](CC(O)=O)C(O)=O

>  <JCHEM_ACCEPTOR_COUNT>
5

>  <JCHEM_DONOR_COUNT>
3

>  <JCHEM_ACIDIC_PKA>
1.7

>  <JCHEM_BASIC_PKA>
9.61

>  <JCHEM_PHYSIOLOGICAL_CHARGE>
-1

>  <ALOGPS_LOGP>
-3.5

>  <JCHEM_LOGP>
-3.5

>  <ALOGPS_LOGS>
0.03

>  <JCHEM_POLARIZABILITY>
11.28

>  <JCHEM_POLAR_SURFACE_AREA>
100.62

>  <JCHEM_REFRACTIVITY>
26.53

>  <JCHEM_ROTATABLE_BOND_COUNT>
3

>  <ALOGPS_SOLUBILITY>
1.42e+02 g/l

$$$$
129
  Mrv0541 02231214282D          

  9  8  0  0  1  0            999 V2000
    4.9509    0.8745    0.0000 O   0  0  0  0  0  0  0  0  0  0  0  0
    4.2365    2.1120    0.0000 O   0  0  0  0  0  0  0  0  0  0  0  0
    2.8075    1.2870    0.0000 N   0  0  0  0  0  0  0  0  0  0  0  0
    2.0930   -1.6005    0.0000 N   0  0  0  0  0  0  0  0  0  0  0  0
    3.5220    0.0495    0.0000 C   0  0  0  0  0  0  0  0  0  0  0  0
    2.8075   -0.3630    0.0000 C   0  0  0  0  0  0  0  0  0  0  0  0
    3.5220    0.8745    0.0000 C   0  0  1  0  0  0  0  0  0  0  0  0
    2.8075   -1.1880    0.0000 C   0  0  0  0  0  0  0  0  0  0  0  0
    4.2365    1.2870    0.0000 C   0  0  0  0  0  0  0  0  0  0  0  0
  1  9  1  0  0  0  0
  2  9  2  0  0  0  0
  7  3  1  6  0  0  0
  4  8  1  0  0  0  0
  5  6  1  0  0  0  0
  5  7  1  0  0  0  0
  6  8  1  0  0  0  0
  7  9  1  0  0  0  0
M  END
>  <DRUGBANK_ID>
DB00129

>  <DRUG_GROUPS>
approved; nutraceutical

>  <GENERIC_NAME>
L-Ornithine

>  <SYNONYMS>
(S)-2,5-Diaminopentanoate; (S)-2,5-Diaminopentanoic acid; (S)-2,5-diaminovaleric acid; (S)-ornithine

>  <BRANDS>
OKG

>  <CHEMICAL_FORMULA>
C5H12N2O2

>  <MOLECULAR_WEIGHT>
132.161

>  <EXACT_MASS>
132.089877638

>  <IUPAC_NAME>
(2S)-2,5-diaminopentanoic acid

>  <INCHI_IDENTIFIER>
InChI=1S/C5H12N2O2/c6-3-1-2-4(7)5(8)9/h4H,1-3,6-7H2,(H,8,9)/t4-/m0/s1

>  <INCHI_KEY>
InChIKey=AHLPHDHHMVZTML-BYPYZUCNSA-N

>  <SMILES>
NCCC[C@H](N)C(O)=O

>  <JCHEM_ACCEPTOR_COUNT>
4

>  <JCHEM_DONOR_COUNT>
3

>  <JCHEM_ACIDIC_PKA>
2.67

>  <JCHEM_BASIC_PKA>
10.29

>  <JCHEM_PHYSIOLOGICAL_CHARGE>
1

>  <ALOGPS_LOGP>
-3.6

>  <JCHEM_LOGP>
-3.7

>  <ALOGPS_LOGS>
0.11

>  <JCHEM_POLARIZABILITY>
13.77

>  <JCHEM_POLAR_SURFACE_AREA>
89.34

>  <JCHEM_REFRACTIVITY>
33.21

>  <JCHEM_ROTATABLE_BOND_COUNT>
4

>  <ALOGPS_SOLUBILITY>
1.72e+02 g/l

$$$$
130
  Mrv0541 02231214282D          

 10  9  0  0  1  0            999 V2000
    4.9509    0.8745    0.0000 O   0  0  0  0  0  0  0  0  0  0  0  0
    4.2365    2.1120    0.0000 O   0  0  0  0  0  0  0  0  0  0  0  0
    3.5220   -1.6005    0.0000 O   0  0  0  0  0  0  0  0  0  0  0  0
    2.8075    1.2870    0.0000 N   0  0  0  0  0  0  0  0  0  0  0  0
    2.0930   -1.6005    0.0000 N   0  0  0  0  0  0  0  0  0  0  0  0
    3.5220    0.0495    0.0000 C   0  0  0  0  0  0  0  0  0  0  0  0
    3.5220    0.8745    0.0000 C   0  0  1  0  0  0  0  0  0  0  0  0
    2.8075   -0.3630    0.0000 C   0  0  0  0  0  0  0  0  0  0  0  0
    4.2365    1.2870    0.0000 C   0  0  0  0  0  0  0  0  0  0  0  0
    2.8075   -1.1880    0.0000 C   0  0  0  0  0  0  0  0  0  0  0  0
  1  9  1  0  0  0  0
  2  9  2  0  0  0  0
  3 10  2  0  0  0  0
  7  4  1  6  0  0  0
  5 10  1  0  0  0  0
  6  7  1  0  0  0  0
  6  8  1  0  0  0  0
  7  9  1  0  0  0  0
  8 10  1  0  0  0  0
M  END
>  <DRUGBANK_ID>
DB00130

>  <DRUG_GROUPS>
approved; nutraceutical; investigational

>  <GENERIC_NAME>
L-Glutamine

>  <SYNONYMS>
(S)-2,5-diamino-5-oxopentanoic acid; L-(+)-glutamine; L-2-aminoglutaramic acid; L-glutamic acid -amide

>  <BRANDS>
Cebrogen; Earthlink Science Glutamine Chews Chocolate; Glavamin; Glutamine Express; Glutamine Fuel Mega; Glutamine Fuel Powder ; L-Glutamine Power; Saforis; Stimulina

>  <CHEMICAL_FORMULA>
C5H10N2O3

>  <MOLECULAR_WEIGHT>
146.1445

>  <EXACT_MASS>
146.069142196

>  <IUPAC_NAME>
(2S)-2-amino-4-carbamoylbutanoic acid

>  <INCHI_IDENTIFIER>
InChI=1S/C5H10N2O3/c6-3(5(9)10)1-2-4(7)8/h3H,1-2,6H2,(H2,7,8)(H,9,10)/t3-/m0/s1

>  <INCHI_KEY>
InChIKey=ZDXPYRJPNDTMRX-VKHMYHEASA-N

>  <SMILES>
N[C@@H](CCC(N)=O)C(O)=O

>  <JCHEM_ACCEPTOR_COUNT>
4

>  <JCHEM_DONOR_COUNT>
3

>  <JCHEM_ACIDIC_PKA>
2.15

>  <JCHEM_BASIC_PKA>
9.31

>  <JCHEM_PHYSIOLOGICAL_CHARGE>
0

>  <ALOGPS_LOGP>
-3.3

>  <JCHEM_LOGP>
-4

>  <ALOGPS_LOGS>
-0.17

>  <JCHEM_POLARIZABILITY>
13.85

>  <JCHEM_POLAR_SURFACE_AREA>
106.41

>  <JCHEM_REFRACTIVITY>
33.11

>  <JCHEM_ROTATABLE_BOND_COUNT>
4

>  <ALOGPS_SOLUBILITY>
9.78e+01 g/l

$$$$
131
  Mrv0541 02231214282D          

 23 25  0  0  1  0            999 V2000
    6.9922    2.1365    0.0000 P   0  0  0  0  0  0  0  0  0  0  0  0
    4.9010    0.6808    0.0000 O   0  0  0  0  0  0  0  0  0  0  0  0
    2.8071    1.0969    0.0000 O   0  0  0  0  0  0  0  0  0  0  0  0
    3.8647    2.5471    0.0000 O   0  0  0  0  0  0  0  0  0  0  0  0
    6.3238    1.6527    0.0000 O   0  0  0  0  0  0  0  0  0  0  0  0
    7.4759    1.4682    0.0000 O   0  0  0  0  0  0  0  0  0  0  0  0
    7.6604    2.6202    0.0000 O   0  0  0  0  0  0  0  0  0  0  0  0
    6.5084    2.8048    0.0000 O   0  0  0  0  0  0  0  0  0  0  0  0
    3.8597   -0.3570    0.0000 N   0  0  0  0  0  0  0  0  0  0  0  0
    3.8597   -1.6848    0.0000 N   0  0  0  0  0  0  0  0  0  0  0  0
    2.3645   -0.1959    0.0000 N   0  0  0  0  0  0  0  0  0  0  0  0
    1.6500   -1.4335    0.0000 N   0  0  0  0  0  0  0  0  0  0  0  0
    2.3645   -2.6710    0.0000 N   0  0  0  0  0  0  0  0  0  0  0  0
    3.6321    1.0955    0.0000 C   0  0  2  0  0  0  0  0  0  0  0  0
    4.1182    1.7621    0.0000 C   0  0  1  0  0  0  0  0  0  0  0  0
    4.1159    0.4272    0.0000 C   0  0  1  0  0  0  0  0  0  0  0  0
    4.9025    1.5058    0.0000 C   0  0  1  0  0  0  0  0  0  0  0  0
    5.5707    1.9896    0.0000 C   0  0  0  0  0  0  0  0  0  0  0  0
    3.0790   -0.6084    0.0000 C   0  0  0  0  0  0  0  0  0  0  0  0
    4.3411   -1.0210    0.0000 C   0  0  0  0  0  0  0  0  0  0  0  0
    3.0790   -1.4335    0.0000 C   0  0  0  0  0  0  0  0  0  0  0  0
    2.3645   -1.8460    0.0000 C   0  0  0  0  0  0  0  0  0  0  0  0
    1.6500   -0.6084    0.0000 C   0  0  0  0  0  0  0  0  0  0  0  0
  1  5  1  0  0  0  0
  1  6  1  0  0  0  0
  1  7  1  0  0  0  0
  1  8  2  0  0  0  0
  2 16  1  0  0  0  0
  2 17  1  0  0  0  0
 14  3  1  6  0  0  0
 15  4  1  6  0  0  0
  5 18  1  0  0  0  0
 16  9  1  1  0  0  0
  9 19  1  0  0  0  0
  9 20  1  0  0  0  0
 10 20  2  0  0  0  0
 10 21  1  0  0  0  0
 11 19  2  0  0  0  0
 11 23  1  0  0  0  0
 12 22  1  0  0  0  0
 12 23  2  0  0  0  0
 13 22  1  0  0  0  0
 14 15  1  0  0  0  0
 14 16  1  0  0  0  0
 15 17  1  0  0  0  0
 17 18  1  1  0  0  0
 19 21  1  0  0  0  0
 21 22  2  0  0  0  0
M  END
>  <DRUGBANK_ID>
DB00131

>  <DRUG_GROUPS>
approved; nutraceutical

>  <GENERIC_NAME>
Adenosine monophosphate

>  <SYNONYMS>
5'-Adenosine monophosphate; 5'-Adenylic acid; 5'-AMP; Adenosine 5'-(dihydrogen phosphate); Adenosine 5'-monophosphate; Adenosine 5'-phosphate; Adenosine 5'-phosphoric acid; Adenosine phosphate; Adenosine-5-monophosphoric acid; Adenosine-5'-Monophosphate; Adenosine-5'-monophosphoric acid; Adenylate; Adenylic acid; AMP; Phosphentaside

>  <BRANDS>
Adenovite; Cardiomone; Lycedan; My-B-Den; Phosaden; Phosphaden

>  <CHEMICAL_FORMULA>
C10H14N5O7P

>  <MOLECULAR_WEIGHT>
347.2212

>  <EXACT_MASS>
347.063084339

>  <IUPAC_NAME>
{[(2R,3S,4R,5R)-5-(6-amino-9H-purin-9-yl)-3,4-dihydroxyoxolan-2-yl]methoxy}phosphonic acid

>  <INCHI_IDENTIFIER>
InChI=1S/C10H14N5O7P/c11-8-5-9(13-2-12-8)15(3-14-5)10-7(17)6(16)4(22-10)1-21-23(18,19)20/h2-4,6-7,10,16-17H,1H2,(H2,11,12,13)(H2,18,19,20)/t4-,6-,7-,10-/m1/s1

>  <INCHI_KEY>
InChIKey=UDMBCSSLTHHNCD-KQYNXXCUSA-N

>  <SMILES>
NC1=C2N=CN([C@@H]3O[C@H](COP(O)(O)=O)[C@@H](O)[C@H]3O)C2=NC=N1

>  <JCHEM_ACCEPTOR_COUNT>
10

>  <JCHEM_DONOR_COUNT>
5

>  <JCHEM_ACIDIC_PKA>
1.23

>  <JCHEM_BASIC_PKA>
4.97

>  <JCHEM_PHYSIOLOGICAL_CHARGE>
-2

>  <ALOGPS_LOGP>
-3.1

>  <JCHEM_LOGP>
-4.8

>  <ALOGPS_LOGS>
-2

>  <JCHEM_POLARIZABILITY>
30

>  <JCHEM_POLAR_SURFACE_AREA>
186.07

>  <JCHEM_REFRACTIVITY>
74.07

>  <JCHEM_ROTATABLE_BOND_COUNT>
4

>  <ALOGPS_SOLUBILITY>
3.31e+00 g/l

$$$$
132
  Mrv0541 02231214282D          

 20 19  0  0  0  0            999 V2000
    2.3645    3.2217    0.0000 O   0  0  0  0  0  0  0  0  0  0  0  0
    1.6500    1.9842    0.0000 O   0  0  0  0  0  0  0  0  0  0  0  0
    3.7935   -0.0784    0.0000 C   0  0  0  0  0  0  0  0  0  0  0  0
    4.5080   -0.4909    0.0000 C   0  0  0  0  0  0  0  0  0  0  0  0
    3.7935    0.7466    0.0000 C   0  0  0  0  0  0  0  0  0  0  0  0
    4.5080   -1.3159    0.0000 C   0  0  0  0  0  0  0  0  0  0  0  0
    3.0791    1.1592    0.0000 C   0  0  0  0  0  0  0  0  0  0  0  0
    5.2224   -1.7284    0.0000 C   0  0  0  0  0  0  0  0  0  0  0  0
    3.0791    1.9842    0.0000 C   0  0  0  0  0  0  0  0  0  0  0  0
    5.2224   -2.5534    0.0000 C   0  0  0  0  0  0  0  0  0  0  0  0
    2.3645    2.3967    0.0000 C   0  0  0  0  0  0  0  0  0  0  0  0
    5.9370   -2.9659    0.0000 C   0  0  0  0  0  0  0  0  0  0  0  0
    6.6515   -2.5534    0.0000 C   0  0  0  0  0  0  0  0  0  0  0  0
    7.3659   -2.9659    0.0000 C   0  0  0  0  0  0  0  0  0  0  0  0
    8.0804   -2.5534    0.0000 C   0  0  0  0  0  0  0  0  0  0  0  0
    8.0804   -1.7284    0.0000 C   0  0  0  0  0  0  0  0  0  0  0  0
    8.7949   -1.3159    0.0000 C   0  0  0  0  0  0  0  0  0  0  0  0
    8.7949   -0.4909    0.0000 C   0  0  0  0  0  0  0  0  0  0  0  0
    8.0804   -0.0784    0.0000 C   0  0  0  0  0  0  0  0  0  0  0  0
    8.0804    0.7466    0.0000 C   0  0  0  0  0  0  0  0  0  0  0  0
  1 11  1  0  0  0  0
  2 11  2  0  0  0  0
  3  4  1  0  0  0  0
  3  5  1  0  0  0  0
  4  6  1  0  0  0  0
  5  7  1  0  0  0  0
  6  8  1  0  0  0  0
  7  9  1  0  0  0  0
  8 10  1  0  0  0  0
  9 11  1  0  0  0  0
 10 12  2  0  0  0  0
 12 13  1  0  0  0  0
 13 14  1  0  0  0  0
 14 15  2  0  0  0  0
 15 16  1  0  0  0  0
 16 17  1  0  0  0  0
 17 18  2  0  0  0  0
 18 19  1  0  0  0  0
 19 20  1  0  0  0  0
M  END
>  <DRUGBANK_ID>
DB00132

>  <DRUG_GROUPS>
approved; nutraceutical

>  <GENERIC_NAME>
Alpha-Linolenic Acid

>  <SYNONYMS>
(9Z,12Z,15Z)-Octadecatrienoic acid; 9,12,15-Octadecatrienoic acid; ALA; alpha-Linolenate; linolenate

>  <CHEMICAL_FORMULA>
C18H30O2

>  <MOLECULAR_WEIGHT>
278.4296

>  <EXACT_MASS>
278.224580204

>  <IUPAC_NAME>
(9Z,12Z,15Z)-octadeca-9,12,15-trienoic acid

>  <INCHI_IDENTIFIER>
InChI=1S/C18H30O2/c1-2-3-4-5-6-7-8-9-10-11-12-13-14-15-16-17-18(19)20/h3-4,6-7,9-10H,2,5,8,11-17H2,1H3,(H,19,20)/b4-3-,7-6-,10-9-

>  <INCHI_KEY>
InChIKey=DTOSIQBPPRVQHS-PDBXOOCHSA-N

>  <SMILES>
CC\C=C/C\C=C/C\C=C/CCCCCCCC(O)=O

>  <JCHEM_ACCEPTOR_COUNT>
2

>  <JCHEM_DONOR_COUNT>
1

>  <JCHEM_ACIDIC_PKA>
4.99

>  <JCHEM_PHYSIOLOGICAL_CHARGE>
-1

>  <ALOGPS_LOGP>
6.62

>  <JCHEM_LOGP>
6.06

>  <ALOGPS_LOGS>
-6

>  <JCHEM_POLARIZABILITY>
34.98

>  <JCHEM_POLAR_SURFACE_AREA>
37.3

>  <JCHEM_REFRACTIVITY>
89.64

>  <JCHEM_ROTATABLE_BOND_COUNT>
13

>  <ALOGPS_SOLUBILITY>
2.66e-04 g/l

$$$$
133
  Mrv0541 02231214282D          

  7  6  0  0  1  0            999 V2000
    2.0930   -0.9818    0.0000 O   0  0  0  0  0  0  0  0  0  0  0  0
    4.2365    0.2558    0.0000 O   0  0  0  0  0  0  0  0  0  0  0  0
    3.5220    1.4933    0.0000 O   0  0  0  0  0  0  0  0  0  0  0  0
    2.0930    0.6683    0.0000 N   0  0  0  0  0  0  0  0  0  0  0  0
    2.8075    0.2558    0.0000 C   0  0  1  0  0  0  0  0  0  0  0  0
    2.8075   -0.5693    0.0000 C   0  0  0  0  0  0  0  0  0  0  0  0
    3.5220    0.6683    0.0000 C   0  0  0  0  0  0  0  0  0  0  0  0
  1  6  1  0  0  0  0
  2  7  1  0  0  0  0
  3  7  2  0  0  0  0
  5  4  1  6  0  0  0
  5  6  1  0  0  0  0
  5  7  1  0  0  0  0
M  END
>  <DRUGBANK_ID>
DB00133

>  <DRUG_GROUPS>
approved; nutraceutical

>  <GENERIC_NAME>
L-Serine

>  <SYNONYMS>
(-)-Serine; (S)-2-Amino-3-hydroxypropanoic acid; (S)-a-Amino-b-hydroxypropionic acid; (S)-Serine; 2-Amino-3-hydroxypropionic acid; 3-Hydroxyalanine; b-Hydroxy-L-alanine; L-(-)-Serine; L-3-Hydroxy-2-aminopropionic acid; L-Ser; Serine

>  <CHEMICAL_FORMULA>
C3H7NO3

>  <MOLECULAR_WEIGHT>
105.0926

>  <EXACT_MASS>
105.042593095

>  <IUPAC_NAME>
(2S)-2-amino-3-hydroxypropanoic acid

>  <INCHI_IDENTIFIER>
InChI=1S/C3H7NO3/c4-2(1-5)3(6)7/h2,5H,1,4H2,(H,6,7)/t2-/m0/s1

>  <INCHI_KEY>
InChIKey=MTCFGRXMJLQNBG-REOHCLBHSA-N

>  <SMILES>
N[C@@H](CO)C(O)=O

>  <JCHEM_ACCEPTOR_COUNT>
4

>  <JCHEM_DONOR_COUNT>
3

>  <JCHEM_ACIDIC_PKA>
2.03

>  <JCHEM_BASIC_PKA>
8.93

>  <JCHEM_PHYSIOLOGICAL_CHARGE>
0

>  <ALOGPS_LOGP>
-3.4

>  <JCHEM_LOGP>
-3.9

>  <ALOGPS_LOGS>
0.66

>  <JCHEM_POLARIZABILITY>
9.43

>  <JCHEM_POLAR_SURFACE_AREA>
83.55

>  <JCHEM_REFRACTIVITY>
22.04

>  <JCHEM_ROTATABLE_BOND_COUNT>
2

>  <ALOGPS_SOLUBILITY>
4.80e+02 g/l

$$$$
134
  Mrv0541 02231214282D          

  9  8  0  0  1  0            999 V2000
    2.3642   -1.4436    0.0000 S   0  0  0  0  0  0  0  0  0  0  0  0
    4.5075    0.6187    0.0000 O   0  0  0  0  0  0  0  0  0  0  0  0
    3.7930    1.8561    0.0000 O   0  0  0  0  0  0  0  0  0  0  0  0
    2.3642    1.0312    0.0000 N   0  0  0  0  0  0  0  0  0  0  0  0
    3.0787   -0.2063    0.0000 C   0  0  0  0  0  0  0  0  0  0  0  0
    3.0787    0.6187    0.0000 C   0  0  1  0  0  0  0  0  0  0  0  0
    2.3642   -0.6187    0.0000 C   0  0  0  0  0  0  0  0  0  0  0  0
    3.7930    1.0312    0.0000 C   0  0  0  0  0  0  0  0  0  0  0  0
    1.6498   -1.8561    0.0000 C   0  0  0  0  0  0  0  0  0  0  0  0
  1  7  1  0  0  0  0
  1  9  1  0  0  0  0
  2  8  1  0  0  0  0
  3  8  2  0  0  0  0
  6  4  1  6  0  0  0
  5  6  1  0  0  0  0
  5  7  1  0  0  0  0
  6  8  1  0  0  0  0
M  END
>  <DRUGBANK_ID>
DB00134

>  <DRUG_GROUPS>
approved; nutraceutical

>  <GENERIC_NAME>
L-Methionine

>  <SYNONYMS>
(S)-2-amino-4-(methylthio)butanoic acid; (S)-2-amino-4-(methylthio)butyric acid; (S)-methionine; L-(-)-Methionine; L-a-Amino-g-methylthiobutyric acid; Methionine

>  <BRANDS>
Acimethin; Cymethion

>  <CHEMICAL_FORMULA>
C5H11NO2S

>  <MOLECULAR_WEIGHT>
149.211

>  <EXACT_MASS>
149.051049291

>  <IUPAC_NAME>
(2S)-2-amino-4-(methylsulfanyl)butanoic acid

>  <INCHI_IDENTIFIER>
InChI=1S/C5H11NO2S/c1-9-3-2-4(6)5(7)8/h4H,2-3,6H2,1H3,(H,7,8)/t4-/m0/s1

>  <INCHI_KEY>
InChIKey=FFEARJCKVFRZRR-BYPYZUCNSA-N

>  <SMILES>
CSCC[C@H](N)C(O)=O

>  <JCHEM_ACCEPTOR_COUNT>
3

>  <JCHEM_DONOR_COUNT>
2

>  <JCHEM_ACIDIC_PKA>
2.53

>  <JCHEM_BASIC_PKA>
9.5

>  <JCHEM_PHYSIOLOGICAL_CHARGE>
0

>  <ALOGPS_LOGP>
-1.9

>  <JCHEM_LOGP>
-2.2

>  <ALOGPS_LOGS>
-0.8

>  <JCHEM_POLARIZABILITY>
15.5

>  <JCHEM_POLAR_SURFACE_AREA>
63.32

>  <JCHEM_REFRACTIVITY>
37.59

>  <JCHEM_ROTATABLE_BOND_COUNT>
4

>  <ALOGPS_SOLUBILITY>
2.39e+01 g/l

$$$$
135
  Mrv0541 02231214282D          

 13 13  0  0  1  0            999 V2000
    3.7934    2.3471    0.0000 O   0  0  0  0  0  0  0  0  0  0  0  0
    2.3644   -2.6029    0.0000 O   0  0  0  0  0  0  0  0  0  0  0  0
    2.3644    2.3471    0.0000 O   0  0  0  0  0  0  0  0  0  0  0  0
    3.7934    0.6971    0.0000 N   0  0  0  0  0  0  0  0  0  0  0  0
    2.3644    0.6971    0.0000 C   0  0  0  0  0  0  0  0  0  0  0  0
    3.0790    1.1096    0.0000 C   0  0  1  0  0  0  0  0  0  0  0  0
    2.3644   -0.1279    0.0000 C   0  0  0  0  0  0  0  0  0  0  0  0
    3.0790   -0.5404    0.0000 C   0  0  0  0  0  0  0  0  0  0  0  0
    1.6500   -0.5404    0.0000 C   0  0  0  0  0  0  0  0  0  0  0  0
    3.0790    1.9346    0.0000 C   0  0  0  0  0  0  0  0  0  0  0  0
    3.0790   -1.3654    0.0000 C   0  0  0  0  0  0  0  0  0  0  0  0
    1.6500   -1.3654    0.0000 C   0  0  0  0  0  0  0  0  0  0  0  0
    2.3644   -1.7779    0.0000 C   0  0  0  0  0  0  0  0  0  0  0  0
  1 10  1  0  0  0  0
  2 13  1  0  0  0  0
  3 10  2  0  0  0  0
  6  4  1  1  0  0  0
  5  6  1  0  0  0  0
  5  7  1  0  0  0  0
  6 10  1  0  0  0  0
  7  8  2  0  0  0  0
  7  9  1  0  0  0  0
  8 11  1  0  0  0  0
  9 12  2  0  0  0  0
 11 13  2  0  0  0  0
 12 13  1  0  0  0  0
M  END
>  <DRUGBANK_ID>
DB00135

>  <DRUG_GROUPS>
approved; nutraceutical

>  <GENERIC_NAME>
L-Tyrosine

>  <SYNONYMS>
2-Amino-3-(p-hydroxyphenyl)propionic acid; 3-(p-Hydroxyphenyl)alanine; Free-Form L-Tyrosine

>  <BRANDS>
Rxosine; Tyrosine; Tyrosine Power

>  <CHEMICAL_FORMULA>
C9H11NO3

>  <MOLECULAR_WEIGHT>
181.1885

>  <EXACT_MASS>
181.073893223

>  <IUPAC_NAME>
(2S)-2-amino-3-(4-hydroxyphenyl)propanoic acid

>  <INCHI_IDENTIFIER>
InChI=1S/C9H11NO3/c10-8(9(12)13)5-6-1-3-7(11)4-2-6/h1-4,8,11H,5,10H2,(H,12,13)/t8-/m0/s1

>  <INCHI_KEY>
InChIKey=OUYCCCASQSFEME-QMMMGPOBSA-N

>  <SMILES>
N[C@@H](CC1=CC=C(O)C=C1)C(O)=O

>  <JCHEM_ACCEPTOR_COUNT>
4

>  <JCHEM_DONOR_COUNT>
3

>  <JCHEM_ACIDIC_PKA>
2

>  <JCHEM_BASIC_PKA>
9.19

>  <JCHEM_PHYSIOLOGICAL_CHARGE>
0

>  <ALOGPS_LOGP>
-2.4

>  <JCHEM_LOGP>
-1.5

>  <ALOGPS_LOGS>
-1.4

>  <JCHEM_POLARIZABILITY>
18.01

>  <JCHEM_POLAR_SURFACE_AREA>
83.55

>  <JCHEM_REFRACTIVITY>
47.1

>  <JCHEM_ROTATABLE_BOND_COUNT>
3

>  <ALOGPS_SOLUBILITY>
7.67e+00 g/l

$$$$

  Mrv0541 04191212032D          

 32 34  0  0  1  0            999 V2000
   -1.0890    1.2765    0.0000 C   0  0  0  0  0  0  0  0  0  0  0  0
   -1.0890   -0.3735    0.0000 C   0  0  0  0  0  0  0  0  0  0  0  0
    0.4101   -0.2159    0.0000 C   0  0  0  0  0  0  0  0  0  0  0  0
    0.8950    0.4515    0.0000 C   0  0  0  0  0  0  0  0  0  0  0  0
   -1.8035    0.8640    0.0000 C   0  0  0  0  0  0  0  0  0  0  0  0
   -1.0890   -1.1985    0.0000 C   0  0  0  0  0  0  0  0  0  0  0  0
   -1.8035    0.0390    0.0000 C   0  0  0  0  0  0  0  0  0  0  0  0
   -1.8035   -1.6110    0.0000 C   0  0  0  0  0  0  0  0  0  0  0  0
   -1.8035   -2.4360    0.0000 C   0  0  0  0  0  0  0  0  0  0  0  0
   -1.0890   -2.8485    0.0000 C   0  0  0  0  0  0  0  0  0  0  0  0
   -2.5179   -2.8485    0.0000 C   0  0  0  0  0  0  0  0  0  0  0  0
   -0.3745   -2.4360    0.0000 C   0  0  0  0  0  0  0  0  0  0  0  0
   -2.5179   -3.6735    0.0000 C   0  0  2  0  0  0  0  0  0  0  0  0
   -1.8035   -4.0860    0.0000 C   0  0  0  0  0  0  0  0  0  0  0  0
   -3.2324   -4.0860    0.0000 O   0  0  0  0  0  0  0  0  0  0  0  0
   -0.3044    2.3565    0.0000 C   0  0  0  0  0  0  0  0  0  0  0  0
    0.4101    1.9440    0.0000 C   0  0  2  0  0  0  0  0  0  0  0  0
    1.1246    2.3565    0.0000 C   0  0  0  0  0  0  0  0  0  0  0  0
    1.8390    1.9440    0.0000 C   0  0  0  0  0  0  0  0  0  0  0  0
    3.9825    2.3565    0.0000 C   0  0  0  0  0  0  0  0  0  0  0  0
    3.2680    1.1190    0.0000 C   0  0  0  0  0  0  0  0  0  0  0  0
    2.5535    2.3565    0.0000 C   0  0  0  0  0  0  0  0  0  0  0  0
    0.4101    1.1190    0.0000 C   0  0  2  0  0  0  0  0  0  0  0  0
    1.1246    1.5315    0.0000 H   0  0  0  0  0  0  0  0  0  0  0  0
   -0.3745    0.0390    0.0000 C   0  0  2  0  0  0  0  0  0  0  0  0
   -0.3745   -0.7860    0.0000 H   0  0  0  0  0  0  0  0  0  0  0  0
   -0.3745    0.8640    0.0000 C   0  0  2  0  0  0  0  0  0  0  0  0
   -0.3745    1.6890    0.0000 C   0  0  0  0  0  0  0  0  0  0  0  0
    3.2680    1.9440    0.0000 C   0  0  0  0  0  0  0  0  0  0  0  0
    3.9825    1.5315    0.0000 O   0  0  0  0  0  0  0  0  0  0  0  0
   -1.0890   -3.6735    0.0000 C   0  0  2  0  0  0  0  0  0  0  0  0
   -0.3745   -4.0860    0.0000 O   0  0  0  0  0  0  0  0  0  0  0  0
 25 27  1  0  0  0  0
 27 23  1  0  0  0  0
 27  1  1  0  0  0  0
 25  2  1  0  0  0  0
 25  3  1  0  0  0  0
 23  4  1  0  0  0  0
  1  5  1  0  0  0  0
  2  6  2  0  0  0  0
  2  7  1  0  0  0  0
  6  8  1  0  0  0  0
  8  9  2  0  0  0  0
  9 10  1  0  0  0  0
  9 11  1  0  0  0  0
 10 31  1  0  0  0  0
 10 12  2  0  0  0  0
 11 13  1  0  0  0  0
 31 14  1  0  0  0  0
 13 15  1  6  0  0  0
  3  4  1  0  0  0  0
  5  7  1  0  0  0  0
 13 14  1  0  0  0  0
 23 17  1  0  0  0  0
 17 16  1  6  0  0  0
 17 18  1  0  0  0  0
 18 19  1  0  0  0  0
 19 22  1  0  0  0  0
 22 29  1  0  0  0  0
 29 20  1  0  0  0  0
 29 21  1  0  0  0  0
 23 24  1  6  0  0  0
 25 26  1  6  0  0  0
 27 28  1  1  0  0  0
 29 30  1  0  0  0  0
 31 32  1  1  0  0  0
M  END
>  <DRUGBANK_ID>
DB00136

>  <DRUG_GROUPS>
approved; nutraceutical

>  <GENERIC_NAME>
Calcitriol

>  <SYNONYMS>
1,25-(OH)<sub>2</sub>D3; 1,25-dihydroxycholecalciferol

>  <BRANDS>
Calcijex; Calcitriol Oral Solution; Decostriol; Rocaltrol

>  <CHEMICAL_FORMULA>
C27H44O3

>  <MOLECULAR_WEIGHT>
416.6365

>  <EXACT_MASS>
416.329045274

>  <IUPAC_NAME>
(1R,3S,5Z)-5-{2-[(1R,3aS,4E,7aR)-1-[(2R)-6-hydroxy-6-methylheptan-2-yl]-7a-methyl-octahydro-1H-inden-4-ylidene]ethylidene}-4-methylidenecyclohexane-1,3-diol

>  <INCHI_IDENTIFIER>
InChI=1S/C27H44O3/c1-18(8-6-14-26(3,4)30)23-12-13-24-20(9-7-15-27(23,24)5)10-11-21-16-22(28)17-25(29)19(21)2/h10-11,18,22-25,28-30H,2,6-9,12-17H2,1,3-5H3/b20-10+,21-11-/t18-,22-,23-,24+,25+,27-/m1/s1

>  <INCHI_KEY>
InChIKey=GMRQFYUYWCNGIN-NKMMMXOESA-N

>  <SMILES>
C[C@H](CCCC(C)(C)O)[C@@]1([H])CC[C@@]2([H])\C(CCC[C@]12C)=C\C=C1\C[C@@H](O)C[C@H](O)C1=C

>  <JCHEM_ACCEPTOR_COUNT>
3

>  <JCHEM_DONOR_COUNT>
3

>  <JCHEM_ACIDIC_PKA>
14.39

>  <JCHEM_BASIC_PKA>
-1.3

>  <JCHEM_PHYSIOLOGICAL_CHARGE>
0

>  <ALOGPS_LOGP>
5.51

>  <JCHEM_LOGP>
4.35

>  <ALOGPS_LOGS>
-4.8

>  <JCHEM_POLARIZABILITY>
51.02

>  <JCHEM_POLAR_SURFACE_AREA>
60.69

>  <JCHEM_REFRACTIVITY>
126.53

>  <JCHEM_ROTATABLE_BOND_COUNT>
6

>  <ALOGPS_SOLUBILITY>
6.67e-03 g/l

$$$$
137
  Mrv0541 02231214282D          

 42 43  0  0  1  0            999 V2000
    3.1895   -8.4564    0.0000 O   0  0  0  0  0  0  0  0  0  0  0  0
    9.6200    8.4564    0.0000 O   0  0  0  0  0  0  0  0  0  0  0  0
    2.4751   -6.3939    0.0000 C   0  0  0  0  0  0  0  0  0  0  0  0
    3.1895   -5.9814    0.0000 C   0  0  0  0  0  0  0  0  0  0  0  0
    2.4751   -7.2189    0.0000 C   0  0  0  0  0  0  0  0  0  0  0  0
    3.1895   -7.6314    0.0000 C   0  0  0  0  0  0  0  0  0  0  0  0
    3.9041   -6.3939    0.0000 C   0  0  0  0  0  0  0  0  0  0  0  0
   10.3344    6.3939    0.0000 C   0  0  0  0  0  0  0  0  0  0  0  0
    2.0625   -5.6794    0.0000 C   0  0  0  0  0  0  0  0  0  0  0  0
    1.6500   -6.3939    0.0000 C   0  0  0  0  0  0  0  0  0  0  0  0
   10.3344    7.2189    0.0000 C   0  0  0  0  0  0  0  0  0  0  0  0
    3.9041   -7.2189    0.0000 C   0  0  0  0  0  0  0  0  0  0  0  0
    9.6200    7.6314    0.0000 C   0  0  0  0  0  0  0  0  0  0  0  0
    9.6200    5.9814    0.0000 C   0  0  0  0  0  0  0  0  0  0  0  0
    3.1895   -5.1564    0.0000 C   0  0  0  0  0  0  0  0  0  0  0  0
    8.9054    7.2189    0.0000 C   0  0  0  0  0  0  0  0  0  0  0  0
    8.9054    6.3939    0.0000 C   0  0  0  0  0  0  0  0  0  0  0  0
   10.7469    5.6794    0.0000 C   0  0  0  0  0  0  0  0  0  0  0  0
   11.1594    6.3939    0.0000 C   0  0  0  0  0  0  0  0  0  0  0  0
    4.6185   -5.9814    0.0000 C   0  0  0  0  0  0  0  0  0  0  0  0
    3.9041   -4.7439    0.0000 C   0  0  0  0  0  0  0  0  0  0  0  0
    9.6200    5.1564    0.0000 C   0  0  0  0  0  0  0  0  0  0  0  0
    8.1909    5.9814    0.0000 C   0  0  0  0  0  0  0  0  0  0  0  0
    3.9041   -3.9188    0.0000 C   0  0  0  0  0  0  0  0  0  0  0  0
    8.9054    4.7439    0.0000 C   0  0  0  0  0  0  0  0  0  0  0  0
    3.1895   -3.5063    0.0000 C   0  0  0  0  0  0  0  0  0  0  0  0
    8.9054    3.9188    0.0000 C   0  0  0  0  0  0  0  0  0  0  0  0
    4.6185   -3.5063    0.0000 C   0  0  0  0  0  0  0  0  0  0  0  0
    9.6200    3.5063    0.0000 C   0  0  0  0  0  0  0  0  0  0  0  0
    8.1909    3.5063    0.0000 C   0  0  0  0  0  0  0  0  0  0  0  0
    4.6185   -2.6813    0.0000 C   0  0  0  0  0  0  0  0  0  0  0  0
    8.1909    2.6813    0.0000 C   0  0  0  0  0  0  0  0  0  0  0  0
    5.3330   -2.2688    0.0000 C   0  0  0  0  0  0  0  0  0  0  0  0
    5.3330   -1.4438    0.0000 C   0  0  0  0  0  0  0  0  0  0  0  0
    7.4765    2.2688    0.0000 C   0  0  0  0  0  0  0  0  0  0  0  0
    7.4765    1.4438    0.0000 C   0  0  0  0  0  0  0  0  0  0  0  0
    4.6185   -1.0313    0.0000 C   0  0  0  0  0  0  0  0  0  0  0  0
    6.0475   -1.0313    0.0000 C   0  0  0  0  0  0  0  0  0  0  0  0
    6.7620    1.0313    0.0000 C   0  0  0  0  0  0  0  0  0  0  0  0
    8.1909    1.0313    0.0000 C   0  0  0  0  0  0  0  0  0  0  0  0
    6.0475   -0.2063    0.0000 C   0  0  0  0  0  0  0  0  0  0  0  0
    6.7620    0.2063    0.0000 C   0  0  0  0  0  0  0  0  0  0  0  0
  1  6  1  0  0  0  0
  2 13  1  0  0  0  0
  3  4  1  0  0  0  0
  3  5  1  0  0  0  0
  3  9  1  0  0  0  0
  3 10  1  0  0  0  0
  4  7  1  0  0  0  0
  4 15  1  0  0  0  0
  5  6  1  0  0  0  0
  6 12  1  0  0  0  0
  7 12  2  0  0  0  0
  7 20  1  0  0  0  0
  8 11  1  0  0  0  0
  8 14  1  0  0  0  0
  8 18  1  0  0  0  0
  8 19  1  0  0  0  0
 11 13  1  0  0  0  0
 13 16  1  0  0  0  0
 14 17  2  0  0  0  0
 14 22  1  0  0  0  0
 15 21  2  0  0  0  0
 16 17  1  0  0  0  0
 17 23  1  0  0  0  0
 21 24  1  0  0  0  0
 22 25  2  0  0  0  0
 24 26  1  0  0  0  0
 24 28  2  0  0  0  0
 25 27  1  0  0  0  0
 27 29  1  0  0  0  0
 27 30  2  0  0  0  0
 28 31  1  0  0  0  0
 30 32  1  0  0  0  0
 31 33  2  0  0  0  0
 32 35  2  0  0  0  0
 33 34  1  0  0  0  0
 34 37  1  0  0  0  0
 34 38  2  0  0  0  0
 35 36  1  0  0  0  0
 36 39  2  0  0  0  0
 36 40  1  0  0  0  0
 38 41  1  0  0  0  0
 39 42  1  0  0  0  0
 41 42  2  0  0  0  0
M  END
>  <DRUGBANK_ID>
DB00137

>  <DRUG_GROUPS>
approved; nutraceutical

>  <GENERIC_NAME>
Xanthophyll

>  <SYNONYMS>
(3R,3'R,6'R)-Lutein; (3R,3'R,6S)-4,5-Didehydro-5,6-Dihydro-Beta,Beta-Carotene-3,3'-Diol; (3R,3'R)-Beta,Beta-Carotene-3,3'-Diol, Lutein; 4,5-Didehydro-5,6-dihydro-beta,beta-carotene-3,3'-diol; All-trans-(+)-Xanthophyll; All-trans-Lutein; all-trans-Xanthophyll; beta,epsilon-Carotene-3,3'-diol; Lutein; Lutein ester; Luteine; Phylloxanthin; trans-Lutein; Vegetable lutein; Vegetable luteol

>  <BRANDS>
Bo-Xan

>  <CHEMICAL_FORMULA>
C40H56O2

>  <MOLECULAR_WEIGHT>
568.8714

>  <EXACT_MASS>
568.428031036

>  <IUPAC_NAME>
4-[(1E,3E,5E,7E,9E,11E,13E,15E,17E)-18-(4-hydroxy-2,6,6-trimethylcyclohex-1-en-1-yl)-3,7,12,16-tetramethyloctadeca-1,3,5,7,9,11,13,15,17-nonaen-1-yl]-3,5,5-trimethylcyclohex-2-en-1-ol

>  <INCHI_IDENTIFIER>
InChI=1S/C40H56O2/c1-29(17-13-19-31(3)21-23-37-33(5)25-35(41)27-39(37,7)8)15-11-12-16-30(2)18-14-20-32(4)22-24-38-34(6)26-36(42)28-40(38,9)10/h11-25,35-37,41-42H,26-28H2,1-10H3/b12-11+,17-13+,18-14+,23-21+,24-22+,29-15+,30-16+,31-19+,32-20+

>  <INCHI_KEY>
InChIKey=KBPHJBAIARWVSC-DKLMTRRASA-N

>  <SMILES>
C\C(\C=C\C=C(/C)\C=C\C1C(C)=CC(O)CC1(C)C)=C/C=C/C=C(\C)/C=C/C=C(\C)/C=C/C1=C(C)CC(O)CC1(C)C

>  <JCHEM_ACCEPTOR_COUNT>
2

>  <JCHEM_DONOR_COUNT>
2

>  <JCHEM_ACIDIC_PKA>
18.22

>  <JCHEM_BASIC_PKA>
-0.91

>  <JCHEM_PHYSIOLOGICAL_CHARGE>
0

>  <ALOGPS_LOGP>
8.29

>  <JCHEM_LOGP>
8.55

>  <ALOGPS_LOGS>
-5.9

>  <JCHEM_POLARIZABILITY>
72.79

>  <JCHEM_POLAR_SURFACE_AREA>
40.46

>  <JCHEM_REFRACTIVITY>
195.06

>  <JCHEM_ROTATABLE_BOND_COUNT>
10

>  <ALOGPS_SOLUBILITY>
7.32e-04 g/l

$$$$
138
  Mrv0541 02231214282D          

 14 13  0  0  1  0            999 V2000
    3.7935    0.5404    0.0000 S   0  0  0  0  0  0  0  0  0  0  0  0
    3.7935   -0.2846    0.0000 S   0  0  0  0  0  0  0  0  0  0  0  0
    5.9370    1.7779    0.0000 O   0  0  0  0  0  0  0  0  0  0  0  0
    2.3645   -2.7597    0.0000 O   0  0  0  0  0  0  0  0  0  0  0  0
    5.2224    3.0154    0.0000 O   0  0  0  0  0  0  0  0  0  0  0  0
    1.6500   -1.5222    0.0000 O   0  0  0  0  0  0  0  0  0  0  0  0
    3.7935    2.1904    0.0000 N   0  0  0  0  0  0  0  0  0  0  0  0
    3.7935   -1.9347    0.0000 N   0  0  0  0  0  0  0  0  0  0  0  0
    4.5080    1.7779    0.0000 C   0  0  1  0  0  0  0  0  0  0  0  0
    3.0791   -1.5222    0.0000 C   0  0  1  0  0  0  0  0  0  0  0  0
    4.5080    0.9529    0.0000 C   0  0  0  0  0  0  0  0  0  0  0  0
    3.0791   -0.6971    0.0000 C   0  0  0  0  0  0  0  0  0  0  0  0
    5.2224    2.1904    0.0000 C   0  0  0  0  0  0  0  0  0  0  0  0
    2.3645   -1.9347    0.0000 C   0  0  0  0  0  0  0  0  0  0  0  0
  1  2  1  0  0  0  0
  1 11  1  0  0  0  0
  2 12  1  0  0  0  0
  3 13  1  0  0  0  0
  4 14  1  0  0  0  0
  5 13  2  0  0  0  0
  6 14  2  0  0  0  0
  9  7  1  6  0  0  0
 10  8  1  6  0  0  0
  9 11  1  0  0  0  0
  9 13  1  0  0  0  0
 10 12  1  0  0  0  0
 10 14  1  0  0  0  0
M  END
>  <DRUGBANK_ID>
DB00138

>  <DRUG_GROUPS>
approved; nutraceutical

>  <GENERIC_NAME>
L-Cystine

>  <SYNONYMS>
(-)-Cystine; Cysteine disulfide; Cystine acid; L-alpha-Diamino-beta-dithiolactic acid; L-Dicysteine

>  <CHEMICAL_FORMULA>
C6H12N2O4S2

>  <MOLECULAR_WEIGHT>
240.3

>  <EXACT_MASS>
240.023848262

>  <IUPAC_NAME>
(2R)-2-amino-3-{[(2R)-2-amino-2-carboxyethyl]disulfanyl}propanoic acid

>  <INCHI_IDENTIFIER>
InChI=1S/C6H12N2O4S2/c7-3(5(9)10)1-13-14-2-4(8)6(11)12/h3-4H,1-2,7-8H2,(H,9,10)(H,11,12)/t3-,4-/m0/s1

>  <INCHI_KEY>
InChIKey=LEVWYRKDKASIDU-IMJSIDKUSA-N

>  <SMILES>
N[C@@H](CSSC[C@H](N)C(O)=O)C(O)=O

>  <JCHEM_ACCEPTOR_COUNT>
6

>  <JCHEM_DONOR_COUNT>
4

>  <JCHEM_ACIDIC_PKA>
1.56

>  <JCHEM_BASIC_PKA>
9.34

>  <JCHEM_PHYSIOLOGICAL_CHARGE>
0

>  <ALOGPS_LOGP>
-3.2

>  <JCHEM_LOGP>
-5.9

>  <ALOGPS_LOGS>
-1.2

>  <JCHEM_POLARIZABILITY>
22.67

>  <JCHEM_POLAR_SURFACE_AREA>
126.64

>  <JCHEM_REFRACTIVITY>
54.87

>  <JCHEM_ROTATABLE_BOND_COUNT>
7

>  <ALOGPS_SOLUBILITY>
1.68e+01 g/l

$$$$
139
  Mrv0541 02231214282D          

  8  7  0  0  0  0            999 V2000
    2.0928    0.2063    0.0000 O   0  0  0  0  0  0  0  0  0  0  0  0
    5.6650   -0.2063    0.0000 O   0  0  0  0  0  0  0  0  0  0  0  0
    2.8072   -1.0312    0.0000 O   0  0  0  0  0  0  0  0  0  0  0  0
    4.9504    1.0312    0.0000 O   0  0  0  0  0  0  0  0  0  0  0  0
    3.5217    0.2063    0.0000 C   0  0  0  0  0  0  0  0  0  0  0  0
    4.2361   -0.2063    0.0000 C   0  0  0  0  0  0  0  0  0  0  0  0
    2.8072   -0.2063    0.0000 C   0  0  0  0  0  0  0  0  0  0  0  0
    4.9504    0.2063    0.0000 C   0  0  0  0  0  0  0  0  0  0  0  0
  1  7  1  0  0  0  0
  2  8  1  0  0  0  0
  3  7  2  0  0  0  0
  4  8  2  0  0  0  0
  5  6  1  0  0  0  0
  5  7  1  0  0  0  0
  6  8  1  0  0  0  0
M  END
>  <DRUGBANK_ID>
DB00139

>  <DRUG_GROUPS>
approved; nutraceutical

>  <GENERIC_NAME>
Succinic acid

>  <SYNONYMS>
1,2-Ethanedicarboxylic acid; Amber acid; Asuccin; Bernsteinsaure; Butanedioic acid; Butanedionic acid; Spirit of amber; Succinate

>  <BRANDS>
Katasuccin; Kyselina jantarova

>  <CHEMICAL_FORMULA>
C4H6O4

>  <MOLECULAR_WEIGHT>
118.088

>  <EXACT_MASS>
118.02660868

>  <IUPAC_NAME>
butanedioic acid

>  <INCHI_IDENTIFIER>
InChI=1S/C4H6O4/c5-3(6)1-2-4(7)8/h1-2H2,(H,5,6)(H,7,8)

>  <INCHI_KEY>
InChIKey=KDYFGRWQOYBRFD-UHFFFAOYSA-N

>  <SMILES>
OC(=O)CCC(O)=O

>  <JCHEM_ACCEPTOR_COUNT>
4

>  <JCHEM_DONOR_COUNT>
2

>  <JCHEM_ACIDIC_PKA>
3.55

>  <JCHEM_PHYSIOLOGICAL_CHARGE>
-2

>  <ALOGPS_LOGP>
-0.53

>  <JCHEM_LOGP>
-0.4

>  <ALOGPS_LOGS>
0.25

>  <JCHEM_POLARIZABILITY>
10.14

>  <JCHEM_POLAR_SURFACE_AREA>
74.6

>  <JCHEM_REFRACTIVITY>
23.54

>  <JCHEM_ROTATABLE_BOND_COUNT>
3

>  <ALOGPS_SOLUBILITY>
2.11e+02 g/l

$$$$

  Mrv0541 02231214282D          

 27 29  0  0  0  0            999 V2000
    0.7145    0.4125    0.0000 C   0  0  0  0  0  0  0  0  0  0  0  0
    0.7145   -0.4125    0.0000 C   0  0  0  0  0  0  0  0  0  0  0  0
   -0.7145    0.4125    0.0000 C   0  0  0  0  0  0  0  0  0  0  0  0
   -0.7145   -0.4125    0.0000 C   0  0  0  0  0  0  0  0  0  0  0  0
   -1.4289    0.8250    0.0000 C   0  0  0  0  0  0  0  0  0  0  0  0
   -1.4289   -0.8250    0.0000 C   0  0  0  0  0  0  0  0  0  0  0  0
   -2.1434   -0.4125    0.0000 C   0  0  0  0  0  0  0  0  0  0  0  0
   -2.1434    0.4125    0.0000 C   0  0  0  0  0  0  0  0  0  0  0  0
    2.1434    0.4125    0.0000 C   0  0  0  0  0  0  0  0  0  0  0  0
    0.0000   -0.8250    0.0000 N   0  0  0  0  0  0  0  0  0  0  0  0
    1.4289    0.8250    0.0000 N   0  0  0  0  0  0  0  0  0  0  0  0
    1.4289   -0.8250    0.0000 C   0  0  0  0  0  0  0  0  0  0  0  0
    1.4289   -1.6500    0.0000 O   0  0  0  0  0  0  0  0  0  0  0  0
    2.8579    0.8250    0.0000 O   0  0  0  0  0  0  0  0  0  0  0  0
    2.1434   -0.4125    0.0000 N   0  0  0  0  0  0  0  0  0  0  0  0
    0.0000    0.8250    0.0000 N   0  0  0  0  0  0  0  0  0  0  0  0
    0.0000    1.6500    0.0000 C   0  0  0  0  0  0  0  0  0  0  0  0
   -0.7145    2.0625    0.0000 C   0  0  1  0  0  0  0  0  0  0  0  0
   -0.7145    2.8875    0.0000 C   0  0  1  0  0  0  0  0  0  0  0  0
   -1.4289    1.6500    0.0000 O   0  0  0  0  0  0  0  0  0  0  0  0
   -1.4289    3.3000    0.0000 C   0  0  1  0  0  0  0  0  0  0  0  0
    0.0000    3.3000    0.0000 O   0  0  0  0  0  0  0  0  0  0  0  0
   -1.4289    4.1250    0.0000 C   0  0  0  0  0  0  0  0  0  0  0  0
   -2.1434    2.8875    0.0000 O   0  0  0  0  0  0  0  0  0  0  0  0
   -2.1434    4.5375    0.0000 O   0  0  0  0  0  0  0  0  0  0  0  0
   -2.8579    0.8250    0.0000 C   0  0  0  0  0  0  0  0  0  0  0  0
   -2.8579   -0.8250    0.0000 C   0  0  0  0  0  0  0  0  0  0  0  0
 16  3  1  0  0  0  0
 16  1  1  0  0  0  0
  4 10  1  0  0  0  0
 10  2  2  0  0  0  0
 11  1  2  0  0  0  0
  2  1  1  0  0  0  0
  2 12  1  0  0  0  0
 11  9  1  0  0  0  0
 12 15  1  0  0  0  0
 15  9  1  0  0  0  0
  5  3  2  0  0  0  0
  3  4  1  0  0  0  0
  6  4  2  0  0  0  0
  5  8  1  0  0  0  0
  8  7  2  0  0  0  0
  7  6  1  0  0  0  0
  9 14  2  0  0  0  0
 12 13  2  0  0  0  0
 16 17  1  0  0  0  0
 17 18  1  0  0  0  0
 18 19  1  0  0  0  0
 18 20  1  6  0  0  0
 19 21  1  0  0  0  0
 19 22  1  1  0  0  0
 21 23  1  0  0  0  0
 21 24  1  6  0  0  0
 23 25  1  0  0  0  0
  8 26  1  0  0  0  0
  7 27  1  0  0  0  0
M  END
>  <DRUGBANK_ID>
DB00140

>  <DRUG_GROUPS>
approved; nutraceutical

>  <GENERIC_NAME>
Riboflavin

>  <SYNONYMS>
Lactoflavin; Lactoflavine; Riboflavina [INN-Spanish]; Riboflavine [INN-French]; Riboflavinum [INN-Latin]; Russupteridine Yellow III; Vitamin B2; Vitamin Bi; Vitamin G

>  <BRANDS>
Aqua-Flave; Beflavin; Beflavine; Bisulase; Dermadram; Fiboflavin; Flavaxin; Flavin Bb; Flaxain; HSDB 817; Hyflavin; Hyre; Lactobene; Ovoflavin; Ribipca; Ribocrisina; Riboderm; Ribosyn; Ribotone; Ribovel; Vitaflavine; Vitasan B2

>  <CHEMICAL_FORMULA>
C17H20N4O6

>  <MOLECULAR_WEIGHT>
376.3639

>  <EXACT_MASS>
376.138284392

>  <IUPAC_NAME>
7,8-dimethyl-10-[(2S,3S,4R)-2,3,4,5-tetrahydroxypentyl]-2H,3H,4H,10H-benzo[g]pteridine-2,4-dione

>  <INCHI_IDENTIFIER>
InChI=1S/C17H20N4O6/c1-7-3-9-10(4-8(7)2)21(5-11(23)14(25)12(24)6-22)15-13(18-9)16(26)20-17(27)19-15/h3-4,11-12,14,22-25H,5-6H2,1-2H3,(H,20,26,27)/t11-,12+,14-/m0/s1

>  <INCHI_KEY>
InChIKey=AUNGANRZJHBGPY-SCRDCRAPSA-N

>  <SMILES>
CC1=C(C)C=C2N(C[C@H](O)[C@H](O)[C@H](O)CO)C3=NC(=O)NC(=O)C3=NC2=C1

>  <JCHEM_ACCEPTOR_COUNT>
9

>  <JCHEM_DONOR_COUNT>
5

>  <JCHEM_ACIDIC_PKA>
6.97

>  <JCHEM_BASIC_PKA>
0.76

>  <JCHEM_PHYSIOLOGICAL_CHARGE>
-1

>  <ALOGPS_LOGP>
-1.1

>  <JCHEM_LOGP>
-0.92

>  <ALOGPS_LOGS>
-2.8

>  <JCHEM_POLARIZABILITY>
37.5

>  <JCHEM_POLAR_SURFACE_AREA>
155.05

>  <JCHEM_REFRACTIVITY>
96.27

>  <JCHEM_ROTATABLE_BOND_COUNT>
5

>  <ALOGPS_SOLUBILITY>
6.57e-01 g/l

$$$$

  Mrv0541 04191212032D          

 16 15  0  0  1  0            999 V2000
   12.1995   -5.4501    0.0000 C   0  0  0  0  0  0  0  0  0  0  0  0
   11.4851   -5.8626    0.0000 C   0  0  1  0  0  0  0  0  0  0  0  0
   10.7706   -5.4501    0.0000 C   0  0  2  0  0  0  0  0  0  0  0  0
   10.0561   -5.8626    0.0000 C   0  0  1  0  0  0  0  0  0  0  0  0
    9.3417   -5.4501    0.0000 C   0  0  2  0  0  0  0  0  0  0  0  0
   12.1995   -4.6251    0.0000 O   0  0  0  0  0  0  0  0  0  0  0  0
   10.7706   -4.6251    0.0000 O   0  0  0  0  0  0  0  0  0  0  0  0
   10.0561   -6.6876    0.0000 O   0  0  0  0  0  0  0  0  0  0  0  0
    9.3417   -4.6251    0.0000 O   0  0  0  0  0  0  0  0  0  0  0  0
   12.9140   -5.8626    0.0000 H   0  0  0  0  0  0  0  0  0  0  0  0
    8.6271   -5.8626    0.0000 C   0  0  0  0  0  0  0  0  0  0  0  0
    7.9127   -5.4501    0.0000 O   0  0  0  0  0  0  0  0  0  0  0  0
   11.4851   -6.6876    0.0000 N   0  0  0  0  0  0  0  0  0  0  0  0
   12.1995   -7.1001    0.0000 C   0  0  0  0  0  0  0  0  0  0  0  0
   12.9140   -6.6876    0.0000 O   0  0  0  0  0  0  0  0  0  0  0  0
   12.1995   -7.9251    0.0000 C   0  0  0  0  0  0  0  0  0  0  0  0
  6  1  2  0  0  0  0
  2  1  1  0  0  0  0
 10  1  1  0  0  0  0
  2 13  1  6  0  0  0
  3  2  1  0  0  0  0
  3  7  1  6  0  0  0
  4  3  1  0  0  0  0
  4  8  1  6  0  0  0
  5  4  1  0  0  0  0
  5  9  1  1  0  0  0
 11  5  1  0  0  0  0
 11 12  1  0  0  0  0
 15 14  2  0  0  0  0
 16 14  1  0  0  0  0
 13 14  1  0  0  0  0
M  END
>  <DRUGBANK_ID>
DB00141

>  <DRUG_GROUPS>
approved; nutraceutical

>  <GENERIC_NAME>
N-Acetyl-D-glucosamine

>  <SYNONYMS>
2-Acetamido-2-deoxy-D-glucose; GlcNAc; Glucosamine Complex; N-Acetylchitosamine

>  <BRANDS>
Aflexa; GS-500; Maxi GS; Natures Blend Glucosamine

>  <CHEMICAL_FORMULA>
C8H15NO6

>  <MOLECULAR_WEIGHT>
221.2078

>  <EXACT_MASS>
221.089937217

>  <IUPAC_NAME>
N-[(2R,3R,4S,5R)-3,4,5,6-tetrahydroxy-1-oxohexan-2-yl]acetamide

>  <INCHI_IDENTIFIER>
InChI=1S/C8H15NO6/c1-4(12)9-5(2-10)7(14)8(15)6(13)3-11/h2,5-8,11,13-15H,3H2,1H3,(H,9,12)/t5-,6+,7+,8+/m0/s1

>  <INCHI_KEY>
InChIKey=MBLBDJOUHNCFQT-LXGUWJNJSA-N

>  <SMILES>
[H]C(=O)[C@H](NC(C)=O)[C@@H](O)[C@H](O)[C@H](O)CO

>  <JCHEM_ACCEPTOR_COUNT>
6

>  <JCHEM_DONOR_COUNT>
5

>  <JCHEM_ACIDIC_PKA>
11.56

>  <JCHEM_BASIC_PKA>
-1.2

>  <JCHEM_PHYSIOLOGICAL_CHARGE>
0

>  <ALOGPS_LOGP>
-2.1

>  <JCHEM_LOGP>
-3.9

>  <ALOGPS_LOGS>
-0.18

>  <JCHEM_POLARIZABILITY>
20.49

>  <JCHEM_POLAR_SURFACE_AREA>
127.09

>  <JCHEM_REFRACTIVITY>
48.45

>  <JCHEM_ROTATABLE_BOND_COUNT>
6

>  <ALOGPS_SOLUBILITY>
1.48e+02 g/l

$$$$
142
  Mrv0541 02231214282D          

 10  9  0  0  1  0            999 V2000
    4.5079    0.8745    0.0000 O   0  0  0  0  0  0  0  0  0  0  0  0
    1.6500   -1.6005    0.0000 O   0  0  0  0  0  0  0  0  0  0  0  0
    3.7935    2.1120    0.0000 O   0  0  0  0  0  0  0  0  0  0  0  0
    3.0790   -1.6005    0.0000 O   0  0  0  0  0  0  0  0  0  0  0  0
    2.3645    1.2870    0.0000 N   0  0  0  0  0  0  0  0  0  0  0  0
    3.0790    0.0495    0.0000 C   0  0  0  0  0  0  0  0  0  0  0  0
    3.0790    0.8745    0.0000 C   0  0  1  0  0  0  0  0  0  0  0  0
    2.3645   -0.3630    0.0000 C   0  0  0  0  0  0  0  0  0  0  0  0
    3.7935    1.2870    0.0000 C   0  0  0  0  0  0  0  0  0  0  0  0
    2.3645   -1.1880    0.0000 C   0  0  0  0  0  0  0  0  0  0  0  0
  1  9  1  0  0  0  0
  2 10  1  0  0  0  0
  3  9  2  0  0  0  0
  4 10  2  0  0  0  0
  7  5  1  6  0  0  0
  6  7  1  0  0  0  0
  6  8  1  0  0  0  0
  7  9  1  0  0  0  0
  8 10  1  0  0  0  0
M  END
>  <DRUGBANK_ID>
DB00142

>  <DRUG_GROUPS>
approved; nutraceutical

>  <GENERIC_NAME>
L-Glutamic Acid

>  <SYNONYMS>
(2S)-2-Aminopentanedioic acid; (S)-(+)-Glutamic acid; (S)-2-Aminopentanedioic acid; (S)-Glutamic acid; 1-Aminopropane-1,3-dicarboxylic acid; 2-Aminoglutaric acid; 2-Aminopentanedioic acid; a-Aminoglutaric acid; a-Glutamic acid; Glutamic acid; Glutaminic acid; L-(+)-Glutamic acid; L-a-Aminoglutaric acid; L-Glutamate; L-Glutaminic acid

>  <BRANDS>
Aciglut; Glusate; Glutacid; Glutamicol; Glutamidex; Glutaminol; Glutaton

>  <CHEMICAL_FORMULA>
C5H9NO4

>  <MOLECULAR_WEIGHT>
147.1293

>  <EXACT_MASS>
147.053157781

>  <IUPAC_NAME>
(2S)-2-aminopentanedioic acid

>  <INCHI_IDENTIFIER>
InChI=1S/C5H9NO4/c6-3(5(9)10)1-2-4(7)8/h3H,1-2,6H2,(H,7,8)(H,9,10)/t3-/m0/s1

>  <INCHI_KEY>
InChIKey=WHUUTDBJXJRKMK-VKHMYHEASA-N

>  <SMILES>
N[C@@H](CCC(O)=O)C(O)=O

>  <JCHEM_ACCEPTOR_COUNT>
5

>  <JCHEM_DONOR_COUNT>
3

>  <JCHEM_ACIDIC_PKA>
1.88

>  <JCHEM_BASIC_PKA>
9.54

>  <JCHEM_PHYSIOLOGICAL_CHARGE>
-1

>  <ALOGPS_LOGP>
-3.5

>  <JCHEM_LOGP>
-3.2

>  <ALOGPS_LOGS>
-0.26

>  <JCHEM_POLARIZABILITY>
13.32

>  <JCHEM_POLAR_SURFACE_AREA>
100.62

>  <JCHEM_REFRACTIVITY>
31.29

>  <JCHEM_ROTATABLE_BOND_COUNT>
4

>  <ALOGPS_SOLUBILITY>
8.06e+01 g/l

$$$$
143
  Mrv0541 02231214282D          

 20 19  0  0  1  0            999 V2000
    6.3799   -1.1096    0.0000 S   0  0  0  0  0  0  0  0  0  0  0  0
    5.6655   -0.6971    0.0000 O   0  0  0  0  0  0  0  0  0  0  0  0
    7.8089    1.3654    0.0000 O   0  0  0  0  0  0  0  0  0  0  0  0
    2.0930    0.5404    0.0000 O   0  0  0  0  0  0  0  0  0  0  0  0
    2.8075   -0.6971    0.0000 O   0  0  0  0  0  0  0  0  0  0  0  0
   10.6668    0.5404    0.0000 O   0  0  0  0  0  0  0  0  0  0  0  0
    9.9524   -0.6971    0.0000 O   0  0  0  0  0  0  0  0  0  0  0  0
    6.3799    0.5404    0.0000 N   0  0  0  0  0  0  0  0  0  0  0  0
    3.5220    1.3654    0.0000 N   0  0  0  0  0  0  0  0  0  0  0  0
    8.5234    0.1279    0.0000 N   0  0  0  0  0  0  0  0  0  0  0  0
    4.2365    0.1279    0.0000 C   0  0  0  0  0  0  0  0  0  0  0  0
    4.9509    0.5404    0.0000 C   0  0  0  0  0  0  0  0  0  0  0  0
    7.0944    0.1279    0.0000 C   0  0  1  0  0  0  0  0  0  0  0  0
    3.5220    0.5404    0.0000 C   0  0  1  0  0  0  0  0  0  0  0  0
    5.6655    0.1279    0.0000 C   0  0  0  0  0  0  0  0  0  0  0  0
    7.0944   -0.6971    0.0000 C   0  0  0  0  0  0  0  0  0  0  0  0
    7.8089    0.5404    0.0000 C   0  0  0  0  0  0  0  0  0  0  0  0
    2.8075    0.1279    0.0000 C   0  0  0  0  0  0  0  0  0  0  0  0
    9.2379    0.5404    0.0000 C   0  0  0  0  0  0  0  0  0  0  0  0
    9.9524    0.1279    0.0000 C   0  0  0  0  0  0  0  0  0  0  0  0
  1 16  1  0  0  0  0
  2 15  2  0  0  0  0
  3 17  2  0  0  0  0
  4 18  1  0  0  0  0
  5 18  2  0  0  0  0
  6 20  1  0  0  0  0
  7 20  2  0  0  0  0
 13  8  1  6  0  0  0
  8 15  1  0  0  0  0
 14  9  1  1  0  0  0
 10 17  1  0  0  0  0
 10 19  1  0  0  0  0
 11 12  1  0  0  0  0
 11 14  1  0  0  0  0
 12 15  1  0  0  0  0
 13 16  1  0  0  0  0
 13 17  1  0  0  0  0
 14 18  1  0  0  0  0
 19 20  1  0  0  0  0
M  END
>  <DRUGBANK_ID>
DB00143

>  <DRUG_GROUPS>
approved; nutraceutical

>  <GENERIC_NAME>
Glutathione

>  <SYNONYMS>
5-L-Glutamyl-L-cysteinylglycine; gamma-L-Glutamyl-L-cysteinyl-glycine; Gluthathione; GSH; N-(N-gamma-L-Glutamyl-L-cysteinyl)glycine

>  <BRANDS>
Copren; Isethion; Ledac; Neuthion; Tathion

>  <CHEMICAL_FORMULA>
C10H17N3O6S

>  <MOLECULAR_WEIGHT>
307.323

>  <EXACT_MASS>
307.083805981

>  <IUPAC_NAME>
(2S)-2-amino-4-{[(1R)-1-[(carboxymethyl)carbamoyl]-2-sulfanylethyl]carbamoyl}butanoic acid

>  <INCHI_IDENTIFIER>
InChI=1S/C10H17N3O6S/c11-5(10(18)19)1-2-7(14)13-6(4-20)9(17)12-3-8(15)16/h5-6,20H,1-4,11H2,(H,12,17)(H,13,14)(H,15,16)(H,18,19)/t5-,6-/m0/s1

>  <INCHI_KEY>
InChIKey=RWSXRVCMGQZWBV-WDSKDSINSA-N

>  <SMILES>
N[C@@H](CCC(=O)N[C@@H](CS)C(=O)NCC(O)=O)C(O)=O

>  <JCHEM_ACCEPTOR_COUNT>
7

>  <JCHEM_DONOR_COUNT>
6

>  <JCHEM_ACIDIC_PKA>
1.94

>  <JCHEM_BASIC_PKA>
9.22

>  <JCHEM_PHYSIOLOGICAL_CHARGE>
-1

>  <ALOGPS_LOGP>
-2.7

>  <JCHEM_LOGP>
-4.9

>  <ALOGPS_LOGS>
-2.5

>  <JCHEM_POLARIZABILITY>
29.11

>  <JCHEM_POLAR_SURFACE_AREA>
158.82

>  <JCHEM_REFRACTIVITY>
69.11

>  <JCHEM_ROTATABLE_BOND_COUNT>
9

>  <ALOGPS_SOLUBILITY>
8.79e-01 g/l

$$$$
6323481
  Mrv0541 02231214282D          

 25 24  0  0  1  0            999 V2000
    7.3659    1.1096    0.0000 P   0  0  0  0  0  0  0  0  0  0  0  0
    4.5080    1.1096    0.0000 O   0  0  0  0  0  0  0  0  0  0  0  0
    6.6515    0.6971    0.0000 O   0  0  0  0  0  0  0  0  0  0  0  0
    4.5080   -0.5404    0.0000 O   0  0  0  0  0  0  0  0  0  0  0  0
    8.0804    1.5222    0.0000 O   0  0  0  0  0  0  0  0  0  0  0  0
    6.9534    1.8241    0.0000 O   0  0  0  0  0  0  0  0  0  0  0  0
    7.7784    0.3952    0.0000 O   0  0  0  0  0  0  0  0  0  0  0  0
    3.7935   -0.1279    0.0000 O   0  0  0  0  0  0  0  0  0  0  0  0
    5.2224   -1.7779    0.0000 O   0  0  0  0  0  0  0  0  0  0  0  0
   10.9383    1.5222    0.0000 O   0  0  0  0  0  0  0  0  0  0  0  0
   10.2239    0.2846    0.0000 O   0  0  0  0  0  0  0  0  0  0  0  0
    9.5094    2.3472    0.0000 N   0  0  0  0  0  0  0  0  0  0  0  0
    5.2224    0.6971    0.0000 C   0  0  1  0  0  0  0  0  0  0  0  0
    5.9370    1.1096    0.0000 C   0  0  0  0  0  0  0  0  0  0  0  0
    5.2224   -0.1279    0.0000 C   0  0  0  0  0  0  0  0  0  0  0  0
    3.0790    1.1096    0.0000 C   0  0  0  0  0  0  0  0  0  0  0  0
    3.7935    0.6971    0.0000 C   0  0  0  0  0  0  0  0  0  0  0  0
    2.3645    0.6971    0.0000 C   0  0  0  0  0  0  0  0  0  0  0  0
    8.7949    1.1096    0.0000 C   0  0  0  0  0  0  0  0  0  0  0  0
    9.5094    1.5222    0.0000 C   0  0  1  0  0  0  0  0  0  0  0  0
    1.6500    1.1096    0.0000 C   0  0  0  0  0  0  0  0  0  0  0  0
    4.5080   -1.3654    0.0000 C   0  0  0  0  0  0  0  0  0  0  0  0
    3.7935   -1.7779    0.0000 C   0  0  0  0  0  0  0  0  0  0  0  0
   10.2239    1.1096    0.0000 C   0  0  0  0  0  0  0  0  0  0  0  0
    3.7935   -2.6029    0.0000 C   0  0  0  0  0  0  0  0  0  0  0  0
  1  3  1  0  0  0  0
  1  5  1  0  0  0  0
  1  6  1  0  0  0  0
  1  7  2  0  0  0  0
 13  2  1  1  0  0  0
  2 17  1  0  0  0  0
  3 14  1  0  0  0  0
  4 15  1  0  0  0  0
  4 22  1  0  0  0  0
  5 19  1  0  0  0  0
  8 17  2  0  0  0  0
  9 22  2  0  0  0  0
 10 24  1  0  0  0  0
 11 24  2  0  0  0  0
 20 12  1  6  0  0  0
 13 14  1  0  0  0  0
 13 15  1  0  0  0  0
 16 17  1  0  0  0  0
 16 18  1  0  0  0  0
 18 21  1  0  0  0  0
 19 20  1  0  0  0  0
 20 24  1  0  0  0  0
 22 23  1  0  0  0  0
 23 25  1  0  0  0  0
M  END
>  <DRUGBANK_ID>
DB00144

>  <DRUG_GROUPS>
approved; nutraceutical

>  <GENERIC_NAME>
Phosphatidylserine

>  <SYNONYMS>
3-O-sn-Phosphatidyl-L-serine; O3-Phosphatidyl-L-serine; Phosphatidyl-L-serine

>  <BRANDS>
LifeExtension PS Caps

>  <CHEMICAL_FORMULA>
C13H24NO10P

>  <MOLECULAR_WEIGHT>
385.3041

>  <EXACT_MASS>
385.113782505

>  <IUPAC_NAME>
(2S)-2-amino-3-({[(2R)-2-(butanoyloxy)-3-(propanoyloxy)propoxy](hydroxy)phosphoryl}oxy)propanoic acid

>  <INCHI_IDENTIFIER>
InChI=1S/C13H24NO10P/c1-3-5-12(16)24-9(6-21-11(15)4-2)7-22-25(19,20)23-8-10(14)13(17)18/h9-10H,3-8,14H2,1-2H3,(H,17,18)(H,19,20)/t9-,10+/m1/s1

>  <INCHI_KEY>
InChIKey=UNJJBGNPUUVVFQ-ZJUUUORDSA-N

>  <SMILES>
CCCC(=O)O[C@H](COC(=O)CC)COP(O)(=O)OC[C@H](N)C(O)=O

>  <JCHEM_ACCEPTOR_COUNT>
7

>  <JCHEM_DONOR_COUNT>
3

>  <JCHEM_ACIDIC_PKA>
1.47

>  <JCHEM_BASIC_PKA>
9.38

>  <JCHEM_PHYSIOLOGICAL_CHARGE>
-1

>  <ALOGPS_LOGP>
-1

>  <JCHEM_LOGP>
-1.6

>  <ALOGPS_LOGS>
-2

>  <JCHEM_POLARIZABILITY>
35.58

>  <JCHEM_POLAR_SURFACE_AREA>
171.68

>  <JCHEM_REFRACTIVITY>
81.81

>  <JCHEM_ROTATABLE_BOND_COUNT>
15

>  <ALOGPS_SOLUBILITY>
3.70e+00 g/l

$$$$

  Mrv0541 02231214282D          

  5  4  0  0  0  0            999 V2000
    2.0930    0.6188    0.0000 O   0  0  0  0  0  0  0  0  0  0  0  0
    2.8075   -0.6188    0.0000 O   0  0  0  0  0  0  0  0  0  0  0  0
    4.2365    0.2063    0.0000 N   0  0  0  0  0  0  0  0  0  0  0  0
    3.5220    0.6188    0.0000 C   0  0  0  0  0  0  0  0  0  0  0  0
    2.8075    0.2063    0.0000 C   0  0  0  0  0  0  0  0  0  0  0  0
  1  5  1  0  0  0  0
  2  5  2  0  0  0  0
  3  4  1  0  0  0  0
  4  5  1  0  0  0  0
M  END
>  <DRUGBANK_ID>
DB00145

>  <DRUG_GROUPS>
approved; nutraceutical

>  <GENERIC_NAME>
Glycine

>  <SYNONYMS>
2-Aminoacetic acid; Aminoacetic acid; Aminoethanoic acid; Gly

>  <BRANDS>
Aciport; Glicoamin; Glycocoll; Glycolixir; Glycosthene; Gyn-Hydralin; Padil

>  <CHEMICAL_FORMULA>
C2H5NO2

>  <MOLECULAR_WEIGHT>
75.0666

>  <EXACT_MASS>
75.032028409

>  <IUPAC_NAME>
2-aminoacetic acid

>  <INCHI_IDENTIFIER>
InChI=1S/C2H5NO2/c3-1-2(4)5/h1,3H2,(H,4,5)

>  <INCHI_KEY>
InChIKey=DHMQDGOQFOQNFH-UHFFFAOYSA-N

>  <SMILES>
NCC(O)=O

>  <JCHEM_ACCEPTOR_COUNT>
3

>  <JCHEM_DONOR_COUNT>
2

>  <JCHEM_ACIDIC_PKA>
2.31

>  <JCHEM_BASIC_PKA>
9.24

>  <JCHEM_PHYSIOLOGICAL_CHARGE>
0

>  <ALOGPS_LOGP>
-3.3

>  <JCHEM_LOGP>
-3.4

>  <ALOGPS_LOGS>
0.87

>  <JCHEM_POLARIZABILITY>
6.65

>  <JCHEM_POLAR_SURFACE_AREA>
63.32

>  <JCHEM_REFRACTIVITY>
16

>  <JCHEM_ROTATABLE_BOND_COUNT>
1

>  <ALOGPS_SOLUBILITY>
5.52e+02 g/l

$$$$

  Mrv0541 04191212102D          

 31 33  0  0  1  0            999 V2000
   -1.0890    1.2765    0.0000 C   0  0  0  0  0  0  0  0  0  0  0  0
   -1.0890   -0.3735    0.0000 C   0  0  0  0  0  0  0  0  0  0  0  0
    0.4101   -0.2159    0.0000 C   0  0  0  0  0  0  0  0  0  0  0  0
    0.8950    0.4515    0.0000 C   0  0  0  0  0  0  0  0  0  0  0  0
   -1.8035    0.8640    0.0000 C   0  0  0  0  0  0  0  0  0  0  0  0
   -1.0890   -1.1985    0.0000 C   0  0  0  0  0  0  0  0  0  0  0  0
   -1.8035    0.0390    0.0000 C   0  0  0  0  0  0  0  0  0  0  0  0
   -1.8035   -1.6110    0.0000 C   0  0  0  0  0  0  0  0  0  0  0  0
   -1.8035   -2.4360    0.0000 C   0  0  0  0  0  0  0  0  0  0  0  0
   -1.0890   -2.8485    0.0000 C   0  0  0  0  0  0  0  0  0  0  0  0
   -2.5179   -2.8485    0.0000 C   0  0  0  0  0  0  0  0  0  0  0  0
   -1.0890   -3.6735    0.0000 C   0  0  0  0  0  0  0  0  0  0  0  0
   -0.3745   -2.4360    0.0000 C   0  0  0  0  0  0  0  0  0  0  0  0
   -2.5179   -3.6735    0.0000 C   0  0  2  0  0  0  0  0  0  0  0  0
   -1.8035   -4.0860    0.0000 C   0  0  0  0  0  0  0  0  0  0  0  0
   -3.2324   -4.0860    0.0000 O   0  0  0  0  0  0  0  0  0  0  0  0
   -0.3044    2.3565    0.0000 C   0  0  0  0  0  0  0  0  0  0  0  0
    0.4101    1.9440    0.0000 C   0  0  2  0  0  0  0  0  0  0  0  0
    1.1246    2.3565    0.0000 C   0  0  0  0  0  0  0  0  0  0  0  0
    1.8390    1.9440    0.0000 C   0  0  0  0  0  0  0  0  0  0  0  0
    3.9825    2.3565    0.0000 C   0  0  0  0  0  0  0  0  0  0  0  0
    3.2680    1.1190    0.0000 C   0  0  0  0  0  0  0  0  0  0  0  0
    2.5535    2.3565    0.0000 C   0  0  0  0  0  0  0  0  0  0  0  0
    0.4101    1.1190    0.0000 C   0  0  2  0  0  0  0  0  0  0  0  0
    1.1246    1.5315    0.0000 H   0  0  0  0  0  0  0  0  0  0  0  0
   -0.3745    0.0390    0.0000 C   0  0  2  0  0  0  0  0  0  0  0  0
   -0.3745   -0.7860    0.0000 H   0  0  0  0  0  0  0  0  0  0  0  0
   -0.3745    0.8640    0.0000 C   0  0  2  0  0  0  0  0  0  0  0  0
   -0.3745    1.6890    0.0000 C   0  0  0  0  0  0  0  0  0  0  0  0
    3.2680    1.9440    0.0000 C   0  0  0  0  0  0  0  0  0  0  0  0
    3.9825    1.5315    0.0000 O   0  0  0  0  0  0  0  0  0  0  0  0
 26 28  1  0  0  0  0
 28 24  1  0  0  0  0
 28  1  1  0  0  0  0
 26  2  1  0  0  0  0
 26  3  1  0  0  0  0
 24  4  1  0  0  0  0
  1  5  1  0  0  0  0
  2  6  2  0  0  0  0
  2  7  1  0  0  0  0
  6  8  1  0  0  0  0
  8  9  2  0  0  0  0
  9 10  1  0  0  0  0
  9 11  1  0  0  0  0
 10 12  1  0  0  0  0
 10 13  2  0  0  0  0
 11 14  1  0  0  0  0
 12 15  1  0  0  0  0
 14 16  1  6  0  0  0
  3  4  1  0  0  0  0
  5  7  1  0  0  0  0
 14 15  1  0  0  0  0
 24 18  1  0  0  0  0
 18 17  1  6  0  0  0
 18 19  1  0  0  0  0
 19 20  1  0  0  0  0
 20 23  1  0  0  0  0
 23 30  1  0  0  0  0
 30 21  1  0  0  0  0
 30 22  1  0  0  0  0
 24 25  1  6  0  0  0
 26 27  1  6  0  0  0
 28 29  1  1  0  0  0
 30 31  1  0  0  0  0
M  END
>  <DRUGBANK_ID>
DB00146

>  <DRUG_GROUPS>
approved; nutraceutical

>  <GENERIC_NAME>
Calcidiol

>  <SYNONYMS>
Calcifediol; Calcifediol Anhydrous; Calcifediolum [INN-Latin]; Calcifidiol

>  <BRANDS>
Calderol; Delakmin

>  <CHEMICAL_FORMULA>
C27H44O2

>  <MOLECULAR_WEIGHT>
400.6371

>  <EXACT_MASS>
400.334130652

>  <IUPAC_NAME>
(1S,3Z)-3-{2-[(1R,3aS,4E,7aR)-1-[(2R)-6-hydroxy-6-methylheptan-2-yl]-7a-methyl-octahydro-1H-inden-4-ylidene]ethylidene}-4-methylidenecyclohexan-1-ol

>  <INCHI_IDENTIFIER>
InChI=1S/C27H44O2/c1-19-10-13-23(28)18-22(19)12-11-21-9-7-17-27(5)24(14-15-25(21)27)20(2)8-6-16-26(3,4)29/h11-12,20,23-25,28-29H,1,6-10,13-18H2,2-5H3/b21-11+,22-12-/t20-,23+,24-,25+,27-/m1/s1

>  <INCHI_KEY>
InChIKey=JWUBBDSIWDLEOM-DTOXIADCSA-N

>  <SMILES>
C[C@H](CCCC(C)(C)O)[C@@]1([H])CC[C@@]2([H])\C(CCC[C@]12C)=C\C=C1\C[C@@H](O)CCC1=C

>  <JCHEM_ACCEPTOR_COUNT>
2

>  <JCHEM_DONOR_COUNT>
2

>  <JCHEM_ACIDIC_PKA>
18.38

>  <JCHEM_BASIC_PKA>
-0.98

>  <JCHEM_PHYSIOLOGICAL_CHARGE>
0

>  <ALOGPS_LOGP>
6.71

>  <JCHEM_LOGP>
5.65

>  <ALOGPS_LOGS>
-5.3

>  <JCHEM_POLARIZABILITY>
50.32

>  <JCHEM_POLAR_SURFACE_AREA>
40.46

>  <JCHEM_REFRACTIVITY>
125.06

>  <JCHEM_ROTATABLE_BOND_COUNT>
6

>  <ALOGPS_SOLUBILITY>
2.20e-03 g/l

$$$$
147
  Mrv0541 02231214282D          

 12 12  0  0  0  0            999 V2000
    2.0930    0.2063    0.0000 O   0  0  0  0  0  0  0  0  0  0  0  0
    5.6655   -0.2063    0.0000 O   0  0  0  0  0  0  0  0  0  0  0  0
    2.8075    1.4438    0.0000 O   0  0  0  0  0  0  0  0  0  0  0  0
    3.5220   -1.4438    0.0000 N   0  0  0  0  0  0  0  0  0  0  0  0
    4.2365   -0.2063    0.0000 C   0  0  0  0  0  0  0  0  0  0  0  0
    3.5220    0.2063    0.0000 C   0  0  0  0  0  0  0  0  0  0  0  0
    2.8075   -0.2063    0.0000 C   0  0  0  0  0  0  0  0  0  0  0  0
    2.8075   -1.0313    0.0000 C   0  0  0  0  0  0  0  0  0  0  0  0
    4.9509    0.2063    0.0000 C   0  0  0  0  0  0  0  0  0  0  0  0
    4.2365   -1.0313    0.0000 C   0  0  0  0  0  0  0  0  0  0  0  0
    2.0930   -1.4438    0.0000 C   0  0  0  0  0  0  0  0  0  0  0  0
    3.5220    1.0313    0.0000 C   0  0  0  0  0  0  0  0  0  0  0  0
  1  7  1  0  0  0  0
  2  9  1  0  0  0  0
  3 12  2  0  0  0  0
  4  8  2  0  0  0  0
  4 10  1  0  0  0  0
  5  6  1  0  0  0  0
  5  9  1  0  0  0  0
  5 10  2  0  0  0  0
  6  7  2  0  0  0  0
  6 12  1  0  0  0  0
  7  8  1  0  0  0  0
  8 11  1  0  0  0  0
M  END
>  <DRUGBANK_ID>
DB00147

>  <DRUG_GROUPS>
approved; nutraceutical

>  <GENERIC_NAME>
Pyridoxal

>  <SYNONYMS>
PL; Pyridoxaldehyde; Vitamin B6 hydrochloride

>  <CHEMICAL_FORMULA>
C8H9NO3

>  <MOLECULAR_WEIGHT>
167.162

>  <EXACT_MASS>
167.058243159

>  <IUPAC_NAME>
3-hydroxy-5-(hydroxymethyl)-2-methylpyridine-4-carbaldehyde

>  <INCHI_IDENTIFIER>
InChI=1S/C8H9NO3/c1-5-8(12)7(4-11)6(3-10)2-9-5/h2,4,10,12H,3H2,1H3

>  <INCHI_KEY>
InChIKey=RADKZDMFGJYCBB-UHFFFAOYSA-N

>  <SMILES>
CC1=NC=C(CO)C(C=O)=C1O

>  <JCHEM_ACCEPTOR_COUNT>
4

>  <JCHEM_DONOR_COUNT>
2

>  <JCHEM_ACIDIC_PKA>
7.97

>  <JCHEM_BASIC_PKA>
4.11

>  <JCHEM_PHYSIOLOGICAL_CHARGE>
0

>  <ALOGPS_LOGP>
0.02

>  <JCHEM_LOGP>
0.18

>  <ALOGPS_LOGS>
-1.2

>  <JCHEM_POLARIZABILITY>
16.28

>  <JCHEM_POLAR_SURFACE_AREA>
70.42

>  <JCHEM_REFRACTIVITY>
43.87

>  <JCHEM_ROTATABLE_BOND_COUNT>
2

>  <ALOGPS_SOLUBILITY>
1.17e+01 g/l

$$$$
148
  Mrv0541 02231214282D          

  9  8  0  0  0  0            999 V2000
    5.6655   -0.0784    0.0000 O   0  0  0  0  0  0  0  0  0  0  0  0
    4.9509    1.1592    0.0000 O   0  0  0  0  0  0  0  0  0  0  0  0
    3.5220    0.3341    0.0000 N   0  0  0  0  0  0  0  0  0  0  0  0
    2.0930    0.3341    0.0000 N   0  0  0  0  0  0  0  0  0  0  0  0
    2.8075   -0.9034    0.0000 N   0  0  0  0  0  0  0  0  0  0  0  0
    4.2365   -0.0784    0.0000 C   0  0  0  0  0  0  0  0  0  0  0  0
    3.5220    1.1592    0.0000 C   0  0  0  0  0  0  0  0  0  0  0  0
    2.8075   -0.0784    0.0000 C   0  0  0  0  0  0  0  0  0  0  0  0
    4.9509    0.3341    0.0000 C   0  0  0  0  0  0  0  0  0  0  0  0
  1  9  1  0  0  0  0
  2  9  2  0  0  0  0
  3  6  1  0  0  0  0
  3  7  1  0  0  0  0
  3  8  1  0  0  0  0
  4  8  1  0  0  0  0
  5  8  2  0  0  0  0
  6  9  1  0  0  0  0
M  END
>  <DRUGBANK_ID>
DB00148

>  <DRUG_GROUPS>
approved; nutraceutical

>  <GENERIC_NAME>
Creatine

>  <SYNONYMS>
(alpha-Methylguanido)acetic acid; Creatine (8CI); Creatine, hydrate; Methylguanidoacetic acid; N-Amidinosarcosine; N-Methyl-N-guanylglycine

>  <BRANDS>
Cosmocair C 100; Creatin; Kreatin; Krebiozon; Phosphagen; Pyrolysate

>  <CHEMICAL_FORMULA>
C4H9N3O2

>  <MOLECULAR_WEIGHT>
131.1332

>  <EXACT_MASS>
131.069476547

>  <IUPAC_NAME>
2-(1-methylcarbamimidamido)acetic acid

>  <INCHI_IDENTIFIER>
InChI=1S/C4H9N3O2/c1-7(4(5)6)2-3(8)9/h2H2,1H3,(H3,5,6)(H,8,9)

>  <INCHI_KEY>
InChIKey=CVSVTCORWBXHQV-UHFFFAOYSA-N

>  <SMILES>
CN(CC(O)=O)C(N)=N

>  <JCHEM_ACCEPTOR_COUNT>
5

>  <JCHEM_DONOR_COUNT>
3

>  <JCHEM_ACIDIC_PKA>
3.5

>  <JCHEM_BASIC_PKA>
12.43

>  <JCHEM_PHYSIOLOGICAL_CHARGE>
0

>  <ALOGPS_LOGP>
-1.6

>  <JCHEM_LOGP>
-2.9

>  <ALOGPS_LOGS>
-1.5

>  <JCHEM_POLARIZABILITY>
12.17

>  <JCHEM_POLAR_SURFACE_AREA>
90.41

>  <JCHEM_REFRACTIVITY>
42.01

>  <JCHEM_ROTATABLE_BOND_COUNT>
2

>  <ALOGPS_SOLUBILITY>
4.11e+00 g/l

$$$$

  Mrv0541 04191212102D          

  9  8  0  0  1  0            999 V2000
    1.7862   -0.2063    0.0000 O   0  0  0  0  0  0  0  0  0  0  0  0
   -1.7862    0.2063    0.0000 C   0  0  0  0  0  0  0  0  0  0  0  0
   -0.3572    0.2063    0.0000 C   0  0  0  0  0  0  0  0  0  0  0  0
    1.0717    0.2062    0.0000 C   0  0  0  0  0  0  0  0  0  0  0  0
    1.0717    1.0312    0.0000 O   0  0  0  0  0  0  0  0  0  0  0  0
    0.3572   -0.2063    0.0000 C   0  0  1  0  0  0  0  0  0  0  0  0
    0.3572   -1.0313    0.0000 N   0  0  0  0  0  0  0  0  0  0  0  0
   -1.0717   -0.2062    0.0000 C   0  0  0  0  0  0  0  0  0  0  0  0
   -1.0717   -1.0313    0.0000 C   0  0  0  0  0  0  0  0  0  0  0  0
  1  4  1  0  0  0  0
  6  4  1  0  0  0  0
  3  6  1  0  0  0  0
  8  3  1  0  0  0  0
  2  8  1  0  0  0  0
  4  5  2  0  0  0  0
  6  7  1  1  0  0  0
  8  9  1  0  0  0  0
M  END
>  <DRUGBANK_ID>
DB00149

>  <DRUG_GROUPS>
approved; nutraceutical

>  <GENERIC_NAME>
L-Leucine

>  <SYNONYMS>
(2S)-2-Amino-4-methylpentanoic acid; (S)-(+)-Leucine; (S)-2-Amino-4-methylpentanoic acid; (S)-2-Amino-4-methylvaleric acid; (S)-Leucine; 1-Leucine; 2-Amino-4-methylpentanoic acid; 2-Amino-4-methylvaleric acid; alpha-Amino-gamma-methylvaleric acid; alpha-Aminoisocaproic acid; L-(-)-2-Amino-4-methylpentanoic acid; L-(+)-Leucine; L-a-Aminoisocaproic acid; Leu; Leucin; Leucine

>  <CHEMICAL_FORMULA>
C6H13NO2

>  <MOLECULAR_WEIGHT>
131.1729

>  <EXACT_MASS>
131.094628665

>  <IUPAC_NAME>
(2S)-2-amino-4-methylpentanoic acid

>  <INCHI_IDENTIFIER>
InChI=1S/C6H13NO2/c1-4(2)3-5(7)6(8)9/h4-5H,3,7H2,1-2H3,(H,8,9)/t5-/m0/s1

>  <INCHI_KEY>
InChIKey=ROHFNLRQFUQHCH-YFKPBYRVSA-N

>  <SMILES>
CC(C)C[C@H](N)C(O)=O

>  <JCHEM_ACCEPTOR_COUNT>
3

>  <JCHEM_DONOR_COUNT>
2

>  <JCHEM_ACIDIC_PKA>
2.79

>  <JCHEM_BASIC_PKA>
9.52

>  <JCHEM_PHYSIOLOGICAL_CHARGE>
0

>  <ALOGPS_LOGP>
-1.8

>  <JCHEM_LOGP>
-1.6

>  <ALOGPS_LOGS>
-0.27

>  <JCHEM_POLARIZABILITY>
14.16

>  <JCHEM_POLAR_SURFACE_AREA>
63.32

>  <JCHEM_REFRACTIVITY>
34.17

>  <JCHEM_ROTATABLE_BOND_COUNT>
3

>  <ALOGPS_SOLUBILITY>
6.98e+01 g/l

$$$$
150
  Mrv0541 02231214282D          

 15 16  0  0  1  0            999 V2000
    5.9868    1.6183    0.0000 O   0  0  0  0  0  0  0  0  0  0  0  0
    4.6286    2.0622    0.0000 O   0  0  0  0  0  0  0  0  0  0  0  0
    3.8597   -1.6183    0.0000 N   0  0  0  0  0  0  0  0  0  0  0  0
    5.4742    0.0498    0.0000 N   0  0  0  0  0  0  0  0  0  0  0  0
    3.8597   -0.2904    0.0000 C   0  0  0  0  0  0  0  0  0  0  0  0
    4.1159    0.4938    0.0000 C   0  0  0  0  0  0  0  0  0  0  0  0
    3.0791   -0.5418    0.0000 C   0  0  0  0  0  0  0  0  0  0  0  0
    4.9232    0.6639    0.0000 C   0  0  1  0  0  0  0  0  0  0  0  0
    3.0791   -1.3668    0.0000 C   0  0  0  0  0  0  0  0  0  0  0  0
    4.3412   -0.9543    0.0000 C   0  0  0  0  0  0  0  0  0  0  0  0
    2.3645   -0.1293    0.0000 C   0  0  0  0  0  0  0  0  0  0  0  0
    2.3645   -1.7793    0.0000 C   0  0  0  0  0  0  0  0  0  0  0  0
    5.1795    1.4482    0.0000 C   0  0  0  0  0  0  0  0  0  0  0  0
    1.6500   -0.5418    0.0000 C   0  0  0  0  0  0  0  0  0  0  0  0
    1.6500   -1.3668    0.0000 C   0  0  0  0  0  0  0  0  0  0  0  0
  1 13  1  0  0  0  0
  2 13  2  0  0  0  0
  3  9  1  0  0  0  0
  3 10  1  0  0  0  0
  8  4  1  1  0  0  0
  5  6  1  0  0  0  0
  5  7  1  0  0  0  0
  5 10  2  0  0  0  0
  6  8  1  0  0  0  0
  7  9  1  0  0  0  0
  7 11  2  0  0  0  0
  8 13  1  0  0  0  0
  9 12  2  0  0  0  0
 11 14  1  0  0  0  0
 12 15  1  0  0  0  0
 14 15  2  0  0  0  0
M  END
>  <DRUGBANK_ID>
DB00150

>  <DRUG_GROUPS>
approved; nutraceutical

>  <GENERIC_NAME>
L-Tryptophan

>  <SYNONYMS>
(-)-Tryptophan; (S)-a-Amino-1H-indole-3-propanoic acid; (S)-a-Amino-b-indolepropionic acid; (S)-a-Aminoindole-3-propionic acid; (S)-Tryptophan; 2-Amino-3-indolylpropanoic acid; 3-Indol-3-ylalanine; alpha-Amino-beta-(3-indolyl)-propionic acid; L-(-)-Tryptophan; l-a-Aminoindole-3-propionic acid; l-b-3-Indolylalanine; L-Tryptophane; Tryptophan; Tryptophane

>  <BRANDS>
Alti-Tryptophan; Lyphan

>  <CHEMICAL_FORMULA>
C11H12N2O2

>  <MOLECULAR_WEIGHT>
204.2252

>  <EXACT_MASS>
204.089877638

>  <IUPAC_NAME>
(2S)-2-amino-3-(1H-indol-3-yl)propanoic acid

>  <INCHI_IDENTIFIER>
InChI=1S/C11H12N2O2/c12-9(11(14)15)5-7-6-13-10-4-2-1-3-8(7)10/h1-4,6,9,13H,5,12H2,(H,14,15)/t9-/m0/s1

>  <INCHI_KEY>
InChIKey=QIVBCDIJIAJPQS-VIFPVBQESA-N

>  <SMILES>
N[C@@H](CC1=CNC2=CC=CC=C12)C(O)=O

>  <JCHEM_ACCEPTOR_COUNT>
3

>  <JCHEM_DONOR_COUNT>
3

>  <JCHEM_ACIDIC_PKA>
2.54

>  <JCHEM_BASIC_PKA>
9.4

>  <JCHEM_PHYSIOLOGICAL_CHARGE>
0

>  <ALOGPS_LOGP>
-1.1

>  <JCHEM_LOGP>
-1.1

>  <ALOGPS_LOGS>
-2.2

>  <JCHEM_POLARIZABILITY>
21.05

>  <JCHEM_POLAR_SURFACE_AREA>
79.11

>  <JCHEM_REFRACTIVITY>
56.2

>  <JCHEM_ROTATABLE_BOND_COUNT>
3

>  <ALOGPS_SOLUBILITY>
1.36e+00 g/l

$$$$
151
  Mrv0541 02231214282D          

  7  6  0  0  1  0            999 V2000
    2.0930   -0.9818    0.0000 S   0  0  0  0  0  0  0  0  0  0  0  0
    4.2365    0.2558    0.0000 O   0  0  0  0  0  0  0  0  0  0  0  0
    3.5220    1.4933    0.0000 O   0  0  0  0  0  0  0  0  0  0  0  0
    2.0930    0.6683    0.0000 N   0  0  0  0  0  0  0  0  0  0  0  0
    2.8075    0.2558    0.0000 C   0  0  1  0  0  0  0  0  0  0  0  0
    2.8075   -0.5693    0.0000 C   0  0  0  0  0  0  0  0  0  0  0  0
    3.5220    0.6683    0.0000 C   0  0  0  0  0  0  0  0  0  0  0  0
  1  6  1  0  0  0  0
  2  7  1  0  0  0  0
  3  7  2  0  0  0  0
  5  4  1  6  0  0  0
  5  6  1  0  0  0  0
  5  7  1  0  0  0  0
M  END
>  <DRUGBANK_ID>
DB00151

>  <DRUG_GROUPS>
approved; nutraceutical

>  <GENERIC_NAME>
L-Cysteine

>  <SYNONYMS>
(R)-2-Amino-3-mercaptopropanoic acid; (R)-Cysteine; 2-Amino-3-mercaptopropionic acid; 3-mercapto-L-Alanine; b-Mercaptoalanine; carbocysteine; Cys; Cystein; Half-cystine; L-(+)-Cysteine; L-2-Amino-3-mercaptopropionic acid; L-Cys; Thioserine

>  <CHEMICAL_FORMULA>
C3H7NO2S

>  <MOLECULAR_WEIGHT>
121.158

>  <EXACT_MASS>
121.019749163

>  <IUPAC_NAME>
(2R)-2-amino-3-sulfanylpropanoic acid

>  <INCHI_IDENTIFIER>
InChI=1S/C3H7NO2S/c4-2(1-7)3(5)6/h2,7H,1,4H2,(H,5,6)/t2-/m0/s1

>  <INCHI_KEY>
InChIKey=XUJNEKJLAYXESH-REOHCLBHSA-N

>  <SMILES>
N[C@@H](CS)C(O)=O

>  <JCHEM_ACCEPTOR_COUNT>
3

>  <JCHEM_DONOR_COUNT>
3

>  <JCHEM_ACIDIC_PKA>
2.35

>  <JCHEM_BASIC_PKA>
9.05

>  <JCHEM_PHYSIOLOGICAL_CHARGE>
0

>  <ALOGPS_LOGP>
-2.6

>  <JCHEM_LOGP>
-2.8

>  <ALOGPS_LOGS>
-0.72

>  <JCHEM_POLARIZABILITY>
11.46

>  <JCHEM_POLAR_SURFACE_AREA>
63.32

>  <JCHEM_REFRACTIVITY>
28.22

>  <JCHEM_ROTATABLE_BOND_COUNT>
2

>  <ALOGPS_SOLUBILITY>
2.31e+01 g/l

$$$$
152
  Mrv0541 02231214282D          

 18 19  0  0  0  0            999 V2000
    1.9050    0.8501    0.0000 S   0  0  0  0  0  0  0  0  0  0  0  0
    3.3643    2.9387    0.0000 O   0  0  0  0  0  0  0  0  0  0  0  0
    2.3175   -0.4194    0.0000 N   0  3  0  0  0  0  0  0  0  0  0  0
    3.7465   -2.8945    0.0000 N   0  0  0  0  0  0  0  0  0  0  0  0
    4.4610   -1.6570    0.0000 N   0  0  0  0  0  0  0  0  0  0  0  0
    2.3175   -2.8945    0.0000 N   0  0  0  0  0  0  0  0  0  0  0  0
    2.9849    0.0655    0.0000 C   0  0  0  0  0  0  0  0  0  0  0  0
    2.3175   -1.2445    0.0000 C   0  0  0  0  0  0  0  0  0  0  0  0
    2.7300    0.8501    0.0000 C   0  0  0  0  0  0  0  0  0  0  0  0
    3.2149    1.5175    0.0000 C   0  0  0  0  0  0  0  0  0  0  0  0
    3.0319   -1.6570    0.0000 C   0  0  0  0  0  0  0  0  0  0  0  0
    1.6500    0.0655    0.0000 C   0  0  0  0  0  0  0  0  0  0  0  0
    3.7696   -0.1894    0.0000 C   0  0  0  0  0  0  0  0  0  0  0  0
    2.8794    2.2713    0.0000 C   0  0  0  0  0  0  0  0  0  0  0  0
    3.0319   -2.4820    0.0000 C   0  0  0  0  0  0  0  0  0  0  0  0
    3.7465   -1.2445    0.0000 C   0  0  0  0  0  0  0  0  0  0  0  0
    4.4610   -2.4820    0.0000 C   0  0  0  0  0  0  0  0  0  0  0  0
    5.1754   -2.8945    0.0000 C   0  0  0  0  0  0  0  0  0  0  0  0
  1  9  1  0  0  0  0
  1 12  1  0  0  0  0
  2 14  1  0  0  0  0
  3  7  1  0  0  0  0
  3  8  1  0  0  0  0
  3 12  2  0  0  0  0
  4 15  2  0  0  0  0
  4 17  1  0  0  0  0
  5 16  1  0  0  0  0
  5 17  2  0  0  0  0
  6 15  1  0  0  0  0
  7  9  2  0  0  0  0
  7 13  1  0  0  0  0
  8 11  1  0  0  0  0
  9 10  1  0  0  0  0
 10 14  1  0  0  0  0
 11 15  1  0  0  0  0
 11 16  2  0  0  0  0
 17 18  1  0  0  0  0
M  CHG  1   3   1
M  END
>  <DRUGBANK_ID>
DB00152

>  <DRUG_GROUPS>
approved; nutraceutical

>  <GENERIC_NAME>
Thiamine

>  <SYNONYMS>
Thiadoxine; Thiamin; Thiamine Hcl; thiamine(1+); Vitamin B1

>  <BRANDS>
Aneurin; Antiberiberi Factor; Betalin S; Betaxin; Bewon; Biamine; Vitaneuron

>  <CHEMICAL_FORMULA>
C12H17N4OS

>  <MOLECULAR_WEIGHT>
265.355

>  <EXACT_MASS>
265.112306876

>  <IUPAC_NAME>
3-[(4-amino-2-methylpyrimidin-5-yl)methyl]-5-(2-hydroxyethyl)-4-methyl-1,3-thiazol-3-ium

>  <INCHI_IDENTIFIER>
InChI=1S/C12H17N4OS/c1-8-11(3-4-17)18-7-16(8)6-10-5-14-9(2)15-12(10)13/h5,7,17H,3-4,6H2,1-2H3,(H2,13,14,15)/q+1

>  <INCHI_KEY>
InChIKey=JZRWCGZRTZMZEH-UHFFFAOYSA-N

>  <SMILES>
CC1=C(CCO)SC=[N+]1CC1=CN=C(C)N=C1N

>  <JCHEM_ACCEPTOR_COUNT>
4

>  <JCHEM_DONOR_COUNT>
2

>  <JCHEM_ACIDIC_PKA>
15.5

>  <JCHEM_BASIC_PKA>
5.54

>  <JCHEM_PHYSIOLOGICAL_CHARGE>
1

>  <ALOGPS_LOGP>
-2.1

>  <JCHEM_LOGP>
-3.1

>  <ALOGPS_LOGS>
-4.3

>  <JCHEM_POLARIZABILITY>
28.14

>  <JCHEM_POLAR_SURFACE_AREA>
75.91

>  <JCHEM_REFRACTIVITY>
73.4

>  <JCHEM_ROTATABLE_BOND_COUNT>
4

>  <ALOGPS_SOLUBILITY>
1.53e-02 g/l

$$$$
153
  Mrv0541 02231214282D          

 31 33  0  0  1  0            999 V2000
    1.6500   -3.9985    0.0000 O   0  0  0  0  0  0  0  0  0  0  0  0
    4.5080    0.9517    0.0000 C   0  0  2  0  0  0  0  0  0  0  0  0
    5.2886    1.2030    0.0000 C   0  0  2  0  0  0  0  0  0  0  0  0
    4.5080    0.1266    0.0000 C   0  0  1  0  0  0  0  0  0  0  0  0
    5.7701    0.5391    0.0000 C   0  0  0  0  0  0  0  0  0  0  0  0
    5.2886   -0.1247    0.0000 C   0  0  0  0  0  0  0  0  0  0  0  0
    3.7935    1.3642    0.0000 C   0  0  0  0  0  0  0  0  0  0  0  0
    5.5449    1.9872    0.0000 C   0  0  2  0  0  0  0  0  0  0  0  0
    3.7935   -0.2859    0.0000 C   0  0  0  0  0  0  0  0  0  0  0  0
    4.5080    1.7767    0.0000 C   0  0  0  0  0  0  0  0  0  0  0  0
    3.0791    0.9517    0.0000 C   0  0  0  0  0  0  0  0  0  0  0  0
    3.0791    0.1266    0.0000 C   0  0  0  0  0  0  0  0  0  0  0  0
    4.9939    2.6013    0.0000 C   0  0  0  0  0  0  0  0  0  0  0  0
    6.3522    2.1574    0.0000 C   0  0  0  0  0  0  0  0  0  0  0  0
    3.7935   -1.1109    0.0000 C   0  0  0  0  0  0  0  0  0  0  0  0
    6.6086    2.9416    0.0000 C   0  0  0  0  0  0  0  0  0  0  0  0
    3.0791   -1.5234    0.0000 C   0  0  0  0  0  0  0  0  0  0  0  0
    7.4158    3.1117    0.0000 C   0  0  1  0  0  0  0  0  0  0  0  0
    3.0791   -2.3484    0.0000 C   0  0  0  0  0  0  0  0  0  0  0  0
    7.6721    3.8959    0.0000 C   0  0  0  0  0  0  0  0  0  0  0  0
    2.3645   -2.7609    0.0000 C   0  0  0  0  0  0  0  0  0  0  0  0
    7.9668    2.4977    0.0000 C   0  0  0  0  0  0  0  0  0  0  0  0
    3.7935   -2.7609    0.0000 C   0  0  0  0  0  0  0  0  0  0  0  0
    2.3645   -3.5859    0.0000 C   0  0  2  0  0  0  0  0  0  0  0  0
    3.7935   -3.5859    0.0000 C   0  0  0  0  0  0  0  0  0  0  0  0
    3.0791   -3.9985    0.0000 C   0  0  0  0  0  0  0  0  0  0  0  0
    7.1211    4.5100    0.0000 C   0  0  0  0  0  0  0  0  0  0  0  0
    8.4794    4.0660    0.0000 C   0  0  0  0  0  0  0  0  0  0  0  0
    4.5080   -2.3484    0.0000 C   0  0  0  0  0  0  0  0  0  0  0  0
    5.9406    1.3054    0.0000 H   0  0  0  0  0  0  0  0  0  0  0  0
    4.5779   -0.5297    0.0000 H   0  0  0  0  0  0  0  0  0  0  0  0
 24  1  1  6  0  0  0
  2  3  1  0  0  0  0
  2  4  1  0  0  0  0
  2  7  1  0  0  0  0
  2 10  1  1  0  0  0
  3  5  1  0  0  0  0
  3  8  1  0  0  0  0
  3 30  1  6  0  0  0
  4  6  1  0  0  0  0
  4  9  1  0  0  0  0
  4 31  1  6  0  0  0
  5  6  1  0  0  0  0
  7 11  1  0  0  0  0
  8 13  1  6  0  0  0
  8 14  1  0  0  0  0
  9 12  1  0  0  0  0
  9 15  2  0  0  0  0
 11 12  1  0  0  0  0
 14 16  2  0  0  0  0
 15 17  1  0  0  0  0
 16 18  1  0  0  0  0
 17 19  2  0  0  0  0
 18 20  1  0  0  0  0
 18 22  1  1  0  0  0
 19 21  1  0  0  0  0
 19 23  1  0  0  0  0
 20 27  1  0  0  0  0
 20 28  1  0  0  0  0
 21 24  1  0  0  0  0
 23 25  1  0  0  0  0
 23 29  2  0  0  0  0
 24 26  1  0  0  0  0
 25 26  1  0  0  0  0
M  END
>  <DRUGBANK_ID>
DB00153

>  <DRUG_GROUPS>
approved; nutraceutical

>  <GENERIC_NAME>
Ergocalciferol

>  <SYNONYMS>
Synthetic Vitamin D; Vitamin D2

>  <BRANDS>
Buco-D; Calciferol; Calciferon 2; Condacaps; Condocaps; Condol; Crtron; Crystallina; D-Arthin; D-Tracetten; Daral; Davitamon D; Davitin; De-Rat Concentrate; Decaps; Dee-Osterol; Dee-Ron; Dee-Ronal; Dee-Roual; Deltalin; Deratol; Detalup; Diactol; Divit Urto; Drisdol; Ercalciol; Ergorone; Ergosterol Activated; Ergosterol, Irradiated; Ertron; Fortodyl; Geltabs; Hi-Deratol; Infron; Metadee; Mulsiferol; Mykostin; Novovitamin-D; Oleovitamin D; Oleovitamin D, Synthetic; Oleovitamin D2; Ostelin; Radiostol; Radstein; Radsterin; Rodine C; Shock-Ferol; Shock-Ferol Sterogyl; Sterogyl; Uvesterol-D; Vio-D; Viostdrol; Viosterol; Viosterol in Oil; Vitavel-D

>  <CHEMICAL_FORMULA>
C28H44O

>  <MOLECULAR_WEIGHT>
396.6484

>  <EXACT_MASS>
396.33921603

>  <IUPAC_NAME>
(1S,3Z)-3-{2-[(1R,3aS,4E,7aR)-1-[(2R,3E,5R)-5,6-dimethylhept-3-en-2-yl]-7a-methyl-octahydro-1H-inden-4-ylidene]ethylidene}-4-methylidenecyclohexan-1-ol

>  <INCHI_IDENTIFIER>
InChI=1S/C28H44O/c1-19(2)20(3)9-10-22(5)26-15-16-27-23(8-7-17-28(26,27)6)12-13-24-18-25(29)14-11-21(24)4/h9-10,12-13,19-20,22,25-27,29H,4,7-8,11,14-18H2,1-3,5-6H3/b10-9+,23-12+,24-13-/t20-,22+,25-,26+,27-,28+/m0/s1

>  <INCHI_KEY>
InChIKey=MECHNRXZTMCUDQ-RKHKHRCZSA-N

>  <SMILES>
CC(C)[C@@H](C)\C=C\[C@@H](C)[C@@]1([H])CC[C@@]2([H])\C(CCC[C@]12C)=C\C=C1\C[C@@H](O)CCC1=C

>  <JCHEM_ACCEPTOR_COUNT>
1

>  <JCHEM_DONOR_COUNT>
1

>  <JCHEM_ACIDIC_PKA>
18.38

>  <JCHEM_BASIC_PKA>
-1.3

>  <JCHEM_PHYSIOLOGICAL_CHARGE>
0

>  <ALOGPS_LOGP>
7.59

>  <JCHEM_LOGP>
7.05

>  <ALOGPS_LOGS>
-6

>  <JCHEM_POLARIZABILITY>
50.73

>  <JCHEM_POLAR_SURFACE_AREA>
20.23

>  <JCHEM_REFRACTIVITY>
128.89

>  <JCHEM_ROTATABLE_BOND_COUNT>
5

>  <ALOGPS_SOLUBILITY>
4.33e-04 g/l

$$$$
5280581
  Mrv0541 02231214292D          

 22 21  0  0  0  0            999 V2000
    1.6500    2.6813    0.0000 O   0  0  0  0  0  0  0  0  0  0  0  0
    3.0790    2.6813    0.0000 O   0  0  0  0  0  0  0  0  0  0  0  0
    3.7935   -0.2063    0.0000 C   0  0  0  0  0  0  0  0  0  0  0  0
    3.0790    0.2063    0.0000 C   0  0  0  0  0  0  0  0  0  0  0  0
    3.7935   -1.0313    0.0000 C   0  0  0  0  0  0  0  0  0  0  0  0
    3.0790    1.0313    0.0000 C   0  0  0  0  0  0  0  0  0  0  0  0
    4.5080   -1.4438    0.0000 C   0  0  0  0  0  0  0  0  0  0  0  0
    2.3645    1.4438    0.0000 C   0  0  0  0  0  0  0  0  0  0  0  0
    7.3659    1.0313    0.0000 C   0  0  0  0  0  0  0  0  0  0  0  0
    6.6515    1.4438    0.0000 C   0  0  0  0  0  0  0  0  0  0  0  0
    7.3659    0.2063    0.0000 C   0  0  0  0  0  0  0  0  0  0  0  0
    6.6515    2.2688    0.0000 C   0  0  0  0  0  0  0  0  0  0  0  0
    4.5080   -2.2688    0.0000 C   0  0  0  0  0  0  0  0  0  0  0  0
    5.2224   -2.6813    0.0000 C   0  0  0  0  0  0  0  0  0  0  0  0
    8.0804   -0.2063    0.0000 C   0  0  0  0  0  0  0  0  0  0  0  0
    2.3645    2.2688    0.0000 C   0  0  0  0  0  0  0  0  0  0  0  0
    5.9370    2.6813    0.0000 C   0  0  0  0  0  0  0  0  0  0  0  0
    5.9370   -2.2688    0.0000 C   0  0  0  0  0  0  0  0  0  0  0  0
    8.0804   -1.0313    0.0000 C   0  0  0  0  0  0  0  0  0  0  0  0
    7.3659   -1.4438    0.0000 C   0  0  0  0  0  0  0  0  0  0  0  0
    6.6515   -2.6813    0.0000 C   0  0  0  0  0  0  0  0  0  0  0  0
    7.3659   -2.2688    0.0000 C   0  0  0  0  0  0  0  0  0  0  0  0
  1 16  1  0  0  0  0
  2 16  2  0  0  0  0
  3  4  1  0  0  0  0
  3  5  1  0  0  0  0
  4  6  1  0  0  0  0
  5  7  1  0  0  0  0
  6  8  1  0  0  0  0
  7 13  1  0  0  0  0
  8 16  1  0  0  0  0
  9 10  1  0  0  0  0
  9 11  1  0  0  0  0
 10 12  1  0  0  0  0
 11 15  1  0  0  0  0
 12 17  1  0  0  0  0
 13 14  2  0  0  0  0
 14 18  1  0  0  0  0
 15 19  2  0  0  0  0
 18 21  1  0  0  0  0
 19 20  1  0  0  0  0
 20 22  1  0  0  0  0
 21 22  2  0  0  0  0
M  END
>  <DRUGBANK_ID>
DB00154

>  <DRUG_GROUPS>
approved; nutraceutical

>  <GENERIC_NAME>
gamma-Homolinolenic acid

>  <SYNONYMS>
(Z,Z,Z)-8,11,14-Eicosatrienoic acid; 8,11,14-Eicosatrienoic Acid; cis-8,11,14-Eicosatrienoic acid; DGLA; Dihomo-gamma-linolenic acid; Homo-gamma-linolenic acid

>  <BRANDS>
Star GLA (GNC); Tona-lean 1000 CLA (Action Labs)

>  <CHEMICAL_FORMULA>
C20H34O2

>  <MOLECULAR_WEIGHT>
306.4828

>  <EXACT_MASS>
306.255880332

>  <IUPAC_NAME>
(8Z,11Z,14Z)-icosa-8,11,14-trienoic acid

>  <INCHI_IDENTIFIER>
InChI=1S/C20H34O2/c1-2-3-4-5-6-7-8-9-10-11-12-13-14-15-16-17-18-19-20(21)22/h6-7,9-10,12-13H,2-5,8,11,14-19H2,1H3,(H,21,22)/b7-6-,10-9-,13-12-

>  <INCHI_KEY>
InChIKey=HOBAELRKJCKHQD-QNEBEIHSSA-N

>  <SMILES>
CCCCC\C=C/C\C=C/C\C=C/CCCCCCC(O)=O

>  <JCHEM_ACCEPTOR_COUNT>
2

>  <JCHEM_DONOR_COUNT>
1

>  <JCHEM_ACIDIC_PKA>
4.89

>  <JCHEM_PHYSIOLOGICAL_CHARGE>
-1

>  <ALOGPS_LOGP>
7.24

>  <JCHEM_LOGP>
6.95

>  <ALOGPS_LOGS>
-6.6

>  <JCHEM_POLARIZABILITY>
39.01

>  <JCHEM_POLAR_SURFACE_AREA>
37.3

>  <JCHEM_REFRACTIVITY>
98.84

>  <JCHEM_ROTATABLE_BOND_COUNT>
15

>  <ALOGPS_SOLUBILITY>
7.71e-05 g/l

$$$$
155
  Mrv0541 02231214292D          

 12 11  0  0  1  0            999 V2000
    5.6655    1.4933    0.0000 O   0  0  0  0  0  0  0  0  0  0  0  0
    4.9509    2.7308    0.0000 O   0  0  0  0  0  0  0  0  0  0  0  0
    3.5220   -2.2193    0.0000 O   0  0  0  0  0  0  0  0  0  0  0  0
    2.8075   -0.9818    0.0000 N   0  0  0  0  0  0  0  0  0  0  0  0
    3.5220    1.9058    0.0000 N   0  0  0  0  0  0  0  0  0  0  0  0
    2.0930   -2.2193    0.0000 N   0  0  0  0  0  0  0  0  0  0  0  0
    4.2365    0.6683    0.0000 C   0  0  0  0  0  0  0  0  0  0  0  0
    3.5220    0.2558    0.0000 C   0  0  0  0  0  0  0  0  0  0  0  0
    4.2365    1.4933    0.0000 C   0  0  1  0  0  0  0  0  0  0  0  0
    3.5220   -0.5693    0.0000 C   0  0  0  0  0  0  0  0  0  0  0  0
    4.9509    1.9058    0.0000 C   0  0  0  0  0  0  0  0  0  0  0  0
    2.8075   -1.8068    0.0000 C   0  0  0  0  0  0  0  0  0  0  0  0
  1 11  1  0  0  0  0
  2 11  2  0  0  0  0
  3 12  2  0  0  0  0
  4 10  1  0  0  0  0
  4 12  1  0  0  0  0
  9  5  1  6  0  0  0
  6 12  1  0  0  0  0
  7  8  1  0  0  0  0
  7  9  1  0  0  0  0
  8 10  1  0  0  0  0
  9 11  1  0  0  0  0
M  END
>  <DRUGBANK_ID>
DB00155

>  <DRUG_GROUPS>
approved; nutraceutical

>  <GENERIC_NAME>
L-Citrulline

>  <SYNONYMS>
2-Amino-5-uredovaleric acid; Citrulline; delta-Ureidonorvaline; N5-(Aminocarbonyl)ornithine; N5-Carbamoyl-L-ornithine; N5-carbamoylornithine; N5-carbamylornithine; Sitrulline

>  <CHEMICAL_FORMULA>
C6H13N3O3

>  <MOLECULAR_WEIGHT>
175.1857

>  <EXACT_MASS>
175.095691297

>  <IUPAC_NAME>
(2S)-2-amino-5-(carbamoylamino)pentanoic acid

>  <INCHI_IDENTIFIER>
InChI=1S/C6H13N3O3/c7-4(5(10)11)2-1-3-9-6(8)12/h4H,1-3,7H2,(H,10,11)(H3,8,9,12)/t4-/m0/s1

>  <INCHI_KEY>
InChIKey=RHGKLRLOHDJJDR-BYPYZUCNSA-N

>  <SMILES>
N[C@@H](CCCNC(N)=O)C(O)=O

>  <JCHEM_ACCEPTOR_COUNT>
4

>  <JCHEM_DONOR_COUNT>
4

>  <JCHEM_ACIDIC_PKA>
2.27

>  <JCHEM_BASIC_PKA>
9.23

>  <JCHEM_PHYSIOLOGICAL_CHARGE>
0

>  <ALOGPS_LOGP>
-3.3

>  <JCHEM_LOGP>
-3.9

>  <ALOGPS_LOGS>
-0.9

>  <JCHEM_POLARIZABILITY>
17.35

>  <JCHEM_POLAR_SURFACE_AREA>
118.44

>  <JCHEM_REFRACTIVITY>
41.33

>  <JCHEM_ROTATABLE_BOND_COUNT>
5

>  <ALOGPS_SOLUBILITY>
2.18e+01 g/l

$$$$
156
  Mrv0541 02231214292D          

  8  7  0  0  1  0            999 V2000
    4.9509   -0.0784    0.0000 O   0  0  0  0  0  0  0  0  0  0  0  0
    2.0930   -0.0784    0.0000 O   0  0  0  0  0  0  0  0  0  0  0  0
    2.8075    1.1592    0.0000 O   0  0  0  0  0  0  0  0  0  0  0  0
    3.5220   -0.9034    0.0000 N   0  0  0  0  0  0  0  0  0  0  0  0
    4.2365    0.3341    0.0000 C   0  0  1  0  0  0  0  0  0  0  0  0
    3.5220   -0.0784    0.0000 C   0  0  1  0  0  0  0  0  0  0  0  0
    4.2365    1.1592    0.0000 C   0  0  0  0  0  0  0  0  0  0  0  0
    2.8075    0.3341    0.0000 C   0  0  0  0  0  0  0  0  0  0  0  0
  5  1  1  1  0  0  0
  2  8  1  0  0  0  0
  3  8  2  0  0  0  0
  6  4  1  6  0  0  0
  5  6  1  0  0  0  0
  5  7  1  0  0  0  0
  6  8  1  0  0  0  0
M  END
>  <DRUGBANK_ID>
DB00156

>  <DRUG_GROUPS>
approved; nutraceutical

>  <GENERIC_NAME>
L-Threonine

>  <SYNONYMS>
(S)-Threonine; [R-(R*,S*)]-2-Amino-3-hydroxybutanoic acid; 2-Amino-3-hydroxybutyric acid; L-(-)-Threonine; Threonin; Threonine

>  <CHEMICAL_FORMULA>
C4H9NO3

>  <MOLECULAR_WEIGHT>
119.1192

>  <EXACT_MASS>
119.058243159

>  <IUPAC_NAME>
(2S,3R)-2-amino-3-hydroxybutanoic acid

>  <INCHI_IDENTIFIER>
InChI=1S/C4H9NO3/c1-2(6)3(5)4(7)8/h2-3,6H,5H2,1H3,(H,7,8)/t2-,3+/m1/s1

>  <INCHI_KEY>
InChIKey=AYFVYJQAPQTCCC-GBXIJSLDSA-N

>  <SMILES>
C[C@@H](O)[C@H](N)C(O)=O

>  <JCHEM_ACCEPTOR_COUNT>
4

>  <JCHEM_DONOR_COUNT>
3

>  <JCHEM_ACIDIC_PKA>
2.21

>  <JCHEM_BASIC_PKA>
9

>  <JCHEM_PHYSIOLOGICAL_CHARGE>
0

>  <ALOGPS_LOGP>
-3

>  <JCHEM_LOGP>
-3.5

>  <ALOGPS_LOGS>
0.6

>  <JCHEM_POLARIZABILITY>
11.12

>  <JCHEM_POLAR_SURFACE_AREA>
83.55

>  <JCHEM_REFRACTIVITY>
26.46

>  <JCHEM_ROTATABLE_BOND_COUNT>
2

>  <ALOGPS_SOLUBILITY>
4.77e+02 g/l

$$$$
157
  Mrv0541 02231214292D          

 44 48  0  0  1  0            999 V2000
    6.9922    1.8744    0.0000 P   0  0  1  0  0  0  0  0  0  0  0  0
    8.4135    2.0213    0.0000 P   0  0  2  0  0  0  0  0  0  0  0  0
    4.9010    0.4187    0.0000 O   0  0  0  0  0  0  0  0  0  0  0  0
   11.3032    2.2426    0.0000 O   0  0  0  0  0  0  0  0  0  0  0  0
    3.8647    2.2851    0.0000 O   0  0  0  0  0  0  0  0  0  0  0  0
    2.8071    0.8348    0.0000 O   0  0  0  0  0  0  0  0  0  0  0  0
   10.2050    0.4119    0.0000 O   0  0  0  0  0  0  0  0  0  0  0  0
   11.9898    0.2212    0.0000 O   0  0  0  0  0  0  0  0  0  0  0  0
    6.3238    1.3906    0.0000 O   0  0  0  0  0  0  0  0  0  0  0  0
    9.1667    1.6844    0.0000 O   0  0  0  0  0  0  0  0  0  0  0  0
    7.6604    2.3582    0.0000 O   0  0  0  0  0  0  0  0  0  0  0  0
    7.4759    1.2061    0.0000 O   0  0  0  0  0  0  0  0  0  0  0  0
    8.7504    2.7744    0.0000 O   0  0  0  0  0  0  0  0  0  0  0  0
    6.5084    2.5427    0.0000 O   0  0  0  0  0  0  0  0  0  0  0  0
    8.0766    1.2682    0.0000 O   0  0  0  0  0  0  0  0  0  0  0  0
   14.3756    0.0175    0.0000 O   0  0  0  0  0  0  0  0  0  0  0  0
    3.8597   -0.6191    0.0000 N   0  0  0  0  0  0  0  0  0  0  0  0
   12.7226    1.8597    0.0000 N   0  0  0  0  0  0  0  0  0  0  0  0
    3.8597   -1.9469    0.0000 N   0  0  0  0  0  0  0  0  0  0  0  0
    2.3645   -0.4580    0.0000 N   0  0  0  0  0  0  0  0  0  0  0  0
    1.6500   -1.6955    0.0000 N   0  0  0  0  0  0  0  0  0  0  0  0
    2.3645   -2.9330    0.0000 N   0  0  0  0  0  0  0  0  0  0  0  0
   15.4392    0.9718    0.0000 N   0  0  0  0  0  0  0  0  0  0  0  0
    4.1182    1.5000    0.0000 C   0  0  1  0  0  0  0  0  0  0  0  0
    3.6321    0.8334    0.0000 C   0  0  2  0  0  0  0  0  0  0  0  0
    4.9025    1.2437    0.0000 C   0  0  1  0  0  0  0  0  0  0  0  0
    4.1159    0.1652    0.0000 C   0  0  1  0  0  0  0  0  0  0  0  0
   10.7582    1.0241    0.0000 C   0  0  1  0  0  0  0  0  0  0  0  0
   11.5785    0.9364    0.0000 C   0  0  2  0  0  0  0  0  0  0  0  0
   10.5880    1.8314    0.0000 C   0  0  1  0  0  0  0  0  0  0  0  0
   11.9154    1.6895    0.0000 C   0  0  1  0  0  0  0  0  0  0  0  0
    5.5707    1.7275    0.0000 C   0  0  0  0  0  0  0  0  0  0  0  0
    9.8349    2.1682    0.0000 C   0  0  0  0  0  0  0  0  0  0  0  0
    3.0790   -0.8705    0.0000 C   0  0  0  0  0  0  0  0  0  0  0  0
   13.2737    1.2456    0.0000 C   0  0  0  0  0  0  0  0  0  0  0  0
    4.3411   -1.2830    0.0000 C   0  0  0  0  0  0  0  0  0  0  0  0
   12.9790    2.6438    0.0000 C   0  0  0  0  0  0  0  0  0  0  0  0
    3.0790   -1.6955    0.0000 C   0  0  0  0  0  0  0  0  0  0  0  0
   14.0809    1.4157    0.0000 C   0  0  0  0  0  0  0  0  0  0  0  0
   14.3372    2.1999    0.0000 C   0  0  0  0  0  0  0  0  0  0  0  0
   13.7862    2.8140    0.0000 C   0  0  0  0  0  0  0  0  0  0  0  0
    2.3645   -2.1080    0.0000 C   0  0  0  0  0  0  0  0  0  0  0  0
   14.6319    0.8017    0.0000 C   0  0  0  0  0  0  0  0  0  0  0  0
    1.6500   -0.8705    0.0000 C   0  0  0  0  0  0  0  0  0  0  0  0
  1  9  1  0  0  0  0
  1 11  1  0  0  0  0
  1 12  1  6  0  0  0
  1 14  2  0  0  0  0
  2 10  1  0  0  0  0
  2 11  1  0  0  0  0
  2 13  1  1  0  0  0
  2 15  2  0  0  0  0
  3 26  1  0  0  0  0
  3 27  1  0  0  0  0
  4 30  1  0  0  0  0
  4 31  1  0  0  0  0
 24  5  1  6  0  0  0
 25  6  1  6  0  0  0
 28  7  1  6  0  0  0
 29  8  1  6  0  0  0
  9 32  1  0  0  0  0
 10 33  1  0  0  0  0
 16 43  2  0  0  0  0
 27 17  1  1  0  0  0
 17 34  1  0  0  0  0
 17 36  1  0  0  0  0
 31 18  1  1  0  0  0
 18 35  1  0  0  0  0
 18 37  1  0  0  0  0
 19 36  2  0  0  0  0
 19 38  1  0  0  0  0
 20 34  2  0  0  0  0
 20 44  1  0  0  0  0
 21 42  1  0  0  0  0
 21 44  2  0  0  0  0
 22 42  1  0  0  0  0
 23 43  1  0  0  0  0
 24 25  1  0  0  0  0
 24 26  1  0  0  0  0
 25 27  1  0  0  0  0
 26 32  1  1  0  0  0
 28 29  1  0  0  0  0
 28 30  1  0  0  0  0
 29 31  1  0  0  0  0
 30 33  1  1  0  0  0
 34 38  1  0  0  0  0
 35 39  2  0  0  0  0
 37 41  2  0  0  0  0
 38 42  2  0  0  0  0
 39 40  1  0  0  0  0
 39 43  1  0  0  0  0
 40 41  1  0  0  0  0
M  END
>  <DRUGBANK_ID>
DB00157

>  <DRUG_GROUPS>
approved; nutraceutical

>  <GENERIC_NAME>
NADH

>  <SYNONYMS>
beta-DPNH; beta-NADH; Coenzyme I, reduced; Cozymase I, reduced; dihydrodiphosphopyridine nucleotide; dihydronicotinamide adenine dinucleotide; Diphosphopyridine nucleotide; diphosphopyridine nucleotide reduced; DPN; DPN+; DPNH; NAD-reduced; NAD+; NADH+H+; NADH2; Nicotinamide adenine dinucleotide; nicotinamide adenine dinucleotide reduced; Nicotinaminde-Adenine-Dinucleotide

>  <BRANDS>
Nadide

>  <CHEMICAL_FORMULA>
C21H29N7O14P2

>  <MOLECULAR_WEIGHT>
665.441

>  <EXACT_MASS>
665.124771695

>  <IUPAC_NAME>
{[(2R,3S,4R,5R)-5-(6-amino-9H-purin-9-yl)-3,4-dihydroxyoxolan-2-yl]methoxy}[({[(2R,3S,4R,5R)-5-(3-carbamoyl-1,4-dihydropyridin-1-yl)-3,4-dihydroxyoxolan-2-yl]methoxy}(hydroxy)phosphoryl)oxy]phosphinic acid

>  <INCHI_IDENTIFIER>
InChI=1S/C21H29N7O14P2/c22-17-12-19(25-7-24-17)28(8-26-12)21-16(32)14(30)11(41-21)6-39-44(36,37)42-43(34,35)38-5-10-13(29)15(31)20(40-10)27-3-1-2-9(4-27)18(23)33/h1,3-4,7-8,10-11,13-16,20-21,29-32H,2,5-6H2,(H2,23,33)(H,34,35)(H,36,37)(H2,22,24,25)/t10-,11-,13-,14-,15-,16-,20-,21-/m1/s1

>  <INCHI_KEY>
InChIKey=BOPGDPNILDQYTO-NNYOXOHSSA-N

>  <SMILES>
NC(=O)C1=CN(C=CC1)[C@@H]1O[C@H](CO[P@](O)(=O)O[P@](O)(=O)OC[C@H]2O[C@H]([C@H](O)[C@@H]2O)N2C=NC3=C(N)N=CN=C23)[C@@H](O)[C@H]1O

>  <JCHEM_ACCEPTOR_COUNT>
16

>  <JCHEM_DONOR_COUNT>
8

>  <JCHEM_ACIDIC_PKA>
-7

>  <JCHEM_BASIC_PKA>
5

>  <JCHEM_PHYSIOLOGICAL_CHARGE>
-2

>  <ALOGPS_LOGP>
-1.4

>  <JCHEM_LOGP>
-6.5

>  <ALOGPS_LOGS>
-2.4

>  <JCHEM_POLARIZABILITY>
57.65

>  <JCHEM_POLAR_SURFACE_AREA>
317.62

>  <JCHEM_REFRACTIVITY>
143

>  <JCHEM_ROTATABLE_BOND_COUNT>
11

>  <ALOGPS_SOLUBILITY>
2.95e+00 g/l

$$$$
158
  Mrv0541 02231214292D          

 32 34  0  0  1  0            999 V2000
   12.8598    0.2286    0.0000 O   0  0  0  0  0  0  0  0  0  0  0  0
    9.9988    1.0426    0.0000 O   0  0  0  0  0  0  0  0  0  0  0  0
   12.1501   -1.0116    0.0000 O   0  0  0  0  0  0  0  0  0  0  0  0
   12.8502    2.7036    0.0000 O   0  0  0  0  0  0  0  0  0  0  0  0
   11.4213    2.6981    0.0000 O   0  0  0  0  0  0  0  0  0  0  0  0
    3.5220   -0.2286    0.0000 O   0  0  0  0  0  0  0  0  0  0  0  0
   10.7180   -0.1921    0.0000 N   0  0  0  0  0  0  0  0  0  0  0  0
    7.1504   -1.4434    0.0000 N   0  0  0  0  0  0  0  0  0  0  0  0
    4.9740   -1.0250    0.0000 N   0  0  0  0  0  0  0  0  0  0  0  0
    3.5220   -2.7036    0.0000 N   0  0  0  0  0  0  0  0  0  0  0  0
    4.9740   -2.7322    0.0000 N   0  0  0  0  0  0  0  0  0  0  0  0
    2.8075   -1.4661    0.0000 N   0  0  0  0  0  0  0  0  0  0  0  0
    2.0930   -2.7036    0.0000 N   0  0  0  0  0  0  0  0  0  0  0  0
   11.4309    0.2231    0.0000 C   0  0  1  0  0  0  0  0  0  0  0  0
   11.4277    1.0481    0.0000 C   0  0  0  0  0  0  0  0  0  0  0  0
   12.1406    1.4634    0.0000 C   0  0  0  0  0  0  0  0  0  0  0  0
   10.0019    0.2176    0.0000 C   0  0  0  0  0  0  0  0  0  0  0  0
    9.2890   -0.1977    0.0000 C   0  0  0  0  0  0  0  0  0  0  0  0
   12.1469   -0.1866    0.0000 C   0  0  0  0  0  0  0  0  0  0  0  0
    7.8633   -1.0282    0.0000 C   0  0  0  0  0  0  0  0  0  0  0  0
    6.4343   -1.0337    0.0000 C   0  0  0  0  0  0  0  0  0  0  0  0
    9.2922   -1.0227    0.0000 C   0  0  0  0  0  0  0  0  0  0  0  0
    8.5730    0.2121    0.0000 C   0  0  0  0  0  0  0  0  0  0  0  0
    8.5793   -1.4379    0.0000 C   0  0  0  0  0  0  0  0  0  0  0  0
    7.8601   -0.2032    0.0000 C   0  0  0  0  0  0  0  0  0  0  0  0
    5.7214   -1.4490    0.0000 C   0  0  0  0  0  0  0  0  0  0  0  0
   12.1374    2.2883    0.0000 C   0  0  0  0  0  0  0  0  0  0  0  0
    4.2364   -1.4661    0.0000 C   0  0  0  0  0  0  0  0  0  0  0  0
    4.2364   -2.2911    0.0000 C   0  0  0  0  0  0  0  0  0  0  0  0
    5.7214   -2.3083    0.0000 C   0  0  0  0  0  0  0  0  0  0  0  0
    3.5220   -1.0536    0.0000 C   0  0  0  0  0  0  0  0  0  0  0  0
    2.8075   -2.2911    0.0000 C   0  0  0  0  0  0  0  0  0  0  0  0
  1 19  1  0  0  0  0
  2 17  2  0  0  0  0
  3 19  2  0  0  0  0
  4 27  1  0  0  0  0
  5 27  2  0  0  0  0
  6 31  2  0  0  0  0
 14  7  1  1  0  0  0
  7 17  1  0  0  0  0
  8 20  1  0  0  0  0
  8 21  1  0  0  0  0
  9 26  1  0  0  0  0
  9 28  2  0  0  0  0
 10 29  1  0  0  0  0
 10 32  1  0  0  0  0
 11 29  2  0  0  0  0
 11 30  1  0  0  0  0
 12 31  1  0  0  0  0
 12 32  2  0  0  0  0
 13 32  1  0  0  0  0
 14 15  1  0  0  0  0
 14 19  1  0  0  0  0
 15 16  1  0  0  0  0
 16 27  1  0  0  0  0
 17 18  1  0  0  0  0
 18 22  2  0  0  0  0
 18 23  1  0  0  0  0
 20 24  2  0  0  0  0
 20 25  1  0  0  0  0
 21 26  1  0  0  0  0
 22 24  1  0  0  0  0
 23 25  2  0  0  0  0
 26 30  2  0  0  0  0
 28 29  1  0  0  0  0
 28 31  1  0  0  0  0
M  END
>  <DRUGBANK_ID>
DB00158

>  <DRUG_GROUPS>
approved; nutraceutical

>  <GENERIC_NAME>
Folic Acid

>  <SYNONYMS>
Folate; Pteroyl-L-glutamic acid; Pteroyl-L-monoglutamic acid; Pteroylglutamic acid; Pteroylmonoglutamic acid; Vitamin B9; Vitamin Bc; Vitamin Be; Vitamin M

>  <BRANDS>
Acifolic; Apo-Folic; Cytofol; Dosfolat B activ; Folacid; Folacin; Folbal; Folcidin; Foldine; Folettes; Foliamin; Folicet; Folipac; Folsan; Folsaure; Folsav; Folvite; Folvron; Incafolic; Millafol

>  <CHEMICAL_FORMULA>
C19H19N7O6

>  <MOLECULAR_WEIGHT>
441.3975

>  <EXACT_MASS>
441.139681375

>  <IUPAC_NAME>
(2S)-2-[(4-{[(2-amino-4-oxo-1,4-dihydropteridin-6-yl)methyl]amino}phenyl)formamido]pentanedioic acid

>  <INCHI_IDENTIFIER>
InChI=1S/C19H19N7O6/c20-19-25-15-14(17(30)26-19)23-11(8-22-15)7-21-10-3-1-9(2-4-10)16(29)24-12(18(31)32)5-6-13(27)28/h1-4,8,12,21H,5-7H2,(H,24,29)(H,27,28)(H,31,32)(H3,20,22,25,26,30)/t12-/m0/s1

>  <INCHI_KEY>
InChIKey=OVBPIULPVIDEAO-LBPRGKRZSA-N

>  <SMILES>
NC1=NC(=O)C2=NC(CNC3=CC=C(C=C3)C(=O)N[C@@H](CCC(O)=O)C(O)=O)=CN=C2N1

>  <JCHEM_ACCEPTOR_COUNT>
12

>  <JCHEM_DONOR_COUNT>
6

>  <JCHEM_ACIDIC_PKA>
3.37

>  <JCHEM_BASIC_PKA>
2.09

>  <JCHEM_PHYSIOLOGICAL_CHARGE>
-2

>  <ALOGPS_LOGP>
-0.04

>  <JCHEM_LOGP>
-0.68

>  <ALOGPS_LOGS>
-3.8

>  <JCHEM_POLARIZABILITY>
42.06

>  <JCHEM_POLAR_SURFACE_AREA>
208.99

>  <JCHEM_REFRACTIVITY>
111.01

>  <JCHEM_ROTATABLE_BOND_COUNT>
9

>  <ALOGPS_SOLUBILITY>
7.61e-02 g/l

$$$$
 
  Mrv0541 05281313312D          
 
 22 21  0  0  0  0            999 V2000
   12.8416  -10.9174    0.0000 C   0  0  0  0  0  0  0  0  0  0  0  0
   13.6781  -10.9174    0.0000 C   0  0  0  0  0  0  0  0  0  0  0  0
   12.0886  -11.3357    0.0000 C   0  0  0  0  0  0  0  0  0  0  0  0
   14.3892  -11.3357    0.0000 C   0  0  0  0  0  0  0  0  0  0  0  0
   11.3775  -10.9174    0.0000 C   0  0  0  0  0  0  0  0  0  0  0  0
   15.1003  -10.9174    0.0000 C   0  0  0  0  0  0  0  0  0  0  0  0
   10.5409  -10.9174    0.0000 C   0  0  0  0  0  0  0  0  0  0  0  0
   15.9369  -10.9174    0.0000 C   0  0  0  0  0  0  0  0  0  0  0  0
    9.8299  -11.3357    0.0000 C   0  0  0  0  0  0  0  0  0  0  0  0
   16.6898  -11.3357    0.0000 C   0  0  0  0  0  0  0  0  0  0  0  0
    9.0769  -10.9174    0.0000 C   0  0  0  0  0  0  0  0  0  0  0  0
   17.4009  -10.9174    0.0000 C   0  0  0  0  0  0  0  0  0  0  0  0
    8.3658  -11.3357    0.0000 C   0  0  0  0  0  0  0  0  0  0  0  0
   18.2375  -10.9174    0.0000 C   0  0  0  0  0  0  0  0  0  0  0  0
    7.6547  -10.9174    0.0000 C   0  0  0  0  0  0  0  0  0  0  0  0
   18.9486  -11.3357    0.0000 C   0  0  0  0  0  0  0  0  0  0  0  0
    6.9018  -11.3357    0.0000 O   0  0  0  0  0  0  0  0  0  0  0  0
    7.6547  -10.0808    0.0000 O   0  0  0  0  0  0  0  0  0  0  0  0
   19.7015  -10.9174    0.0000 C   0  0  0  0  0  0  0  0  0  0  0  0
   20.5381  -10.9174    0.0000 C   0  0  0  0  0  0  0  0  0  0  0  0
   21.2492  -11.3357    0.0000 C   0  0  0  0  0  0  0  0  0  0  0  0
   21.9603  -10.9174    0.0000 C   0  0  0  0  0  0  0  0  0  0  0  0
  1  2  2  0  0  0  0
  1  3  1  0  0  0  0
  2  4  1  0  0  0  0
  3  5  1  0  0  0  0
  4  6  1  0  0  0  0
  5  7  2  0  0  0  0
  6  8  2  0  0  0  0
  7  9  1  0  0  0  0
  8 10  1  0  0  0  0
  9 11  1  0  0  0  0
 10 12  1  0  0  0  0
 11 13  1  0  0  0  0
 12 14  2  0  0  0  0
 13 15  1  0  0  0  0
 14 16  1  0  0  0  0
 15 17  1  0  0  0  0
 15 18  2  0  0  0  0
 16 19  1  0  0  0  0
 19 20  2  0  0  0  0
 20 21  1  0  0  0  0
 21 22  1  0  0  0  0
M  END
>  <DRUGBANK_ID>
DB00159

>  <DRUG_GROUPS>
approved; nutraceutical

>  <GENERIC_NAME>
Icosapent

>  <SYNONYMS>
Eicosapentaenoic acid; EPA; Icosapentaenoic acid; Timnodonic acid

>  <CHEMICAL_FORMULA>
C20H30O2

>  <MOLECULAR_WEIGHT>
302.451

>  <EXACT_MASS>
302.224580204

>  <IUPAC_NAME>
(5Z,8Z,11Z,14Z,17Z)-icosa-5,8,11,14,17-pentaenoic acid

>  <INCHI_IDENTIFIER>
InChI=1/C20H30O2/c1-2-3-4-5-6-7-8-9-10-11-12-13-14-15-16-17-18-19-20(21)22/h3-4,6-7,9-10,12-13,15-16H,2,5,8,11,14,17-19H2,1H3,(H,21,22)/b4-3-,7-6-,10-9-,13-12-,16-15-

>  <INCHI_KEY>
InChIKey=JAZBEHYOTPTENJ-JLNKQSITNA-N

>  <SMILES>
CC\C=C/C\C=C/C\C=C/C\C=C/C\C=C/CCCC(O)=O

>  <JCHEM_ACCEPTOR_COUNT>
2

>  <JCHEM_DONOR_COUNT>
1

>  <JCHEM_ACIDIC_PKA>
4.82

>  <JCHEM_PHYSIOLOGICAL_CHARGE>
-1

>  <ALOGPS_LOGP>
6.53

>  <JCHEM_LOGP>
6.23

>  <ALOGPS_LOGS>
-6

>  <JCHEM_POLARIZABILITY>
35.93

>  <JCHEM_POLAR_SURFACE_AREA>
37.3

>  <JCHEM_REFRACTIVITY>
101.07

>  <JCHEM_ROTATABLE_BOND_COUNT>
13

>  <ALOGPS_SOLUBILITY>
2.89e-04 g/l

$$$$
160
  Mrv0541 02231214292D          

  6  5  0  0  1  0            999 V2000
    4.2361   -0.2063    0.0000 O   0  0  0  0  0  0  0  0  0  0  0  0
    3.5217    1.0312    0.0000 O   0  0  0  0  0  0  0  0  0  0  0  0
    2.0928    0.2063    0.0000 N   0  0  0  0  0  0  0  0  0  0  0  0
    2.8072   -0.2063    0.0000 C   0  0  1  0  0  0  0  0  0  0  0  0
    2.8072   -1.0312    0.0000 C   0  0  0  0  0  0  0  0  0  0  0  0
    3.5217    0.2063    0.0000 C   0  0  0  0  0  0  0  0  0  0  0  0
  1  6  1  0  0  0  0
  2  6  2  0  0  0  0
  4  3  1  6  0  0  0
  4  5  1  0  0  0  0
  4  6  1  0  0  0  0
M  END
>  <DRUGBANK_ID>
DB00160

>  <DRUG_GROUPS>
approved; nutraceutical

>  <GENERIC_NAME>
L-Alanine

>  <SYNONYMS>
(2S)-2-Aminopropanoic acid; (S)-(+)-Alanine; (S)-2-Aminopropanoic acid; (S)-Alanine; 2-Aminopropanoic acid; 2-Aminopropionic acid; a-Alanine; a-Aminopropionic acid; ALA; Alanine; L-(+)-Alanine; L-2-Aminopropanoic acid; L-2-Aminopropionic acid; L-a-Alanine; L-a-Aminopropionic acid

>  <CHEMICAL_FORMULA>
C3H7NO2

>  <MOLECULAR_WEIGHT>
89.0932

>  <EXACT_MASS>
89.047678473

>  <IUPAC_NAME>
(2S)-2-aminopropanoic acid

>  <INCHI_IDENTIFIER>
InChI=1S/C3H7NO2/c1-2(4)3(5)6/h2H,4H2,1H3,(H,5,6)/t2-/m0/s1

>  <INCHI_KEY>
InChIKey=QNAYBMKLOCPYGJ-REOHCLBHSA-N

>  <SMILES>
C[C@H](N)C(O)=O

>  <JCHEM_ACCEPTOR_COUNT>
3

>  <JCHEM_DONOR_COUNT>
2

>  <JCHEM_ACIDIC_PKA>
2.47

>  <JCHEM_BASIC_PKA>
9.48

>  <JCHEM_PHYSIOLOGICAL_CHARGE>
0

>  <ALOGPS_LOGP>
-3

>  <JCHEM_LOGP>
-2.8

>  <ALOGPS_LOGS>
0.7

>  <JCHEM_POLARIZABILITY>
8.52

>  <JCHEM_POLAR_SURFACE_AREA>
63.32

>  <JCHEM_REFRACTIVITY>
20.5

>  <JCHEM_ROTATABLE_BOND_COUNT>
1

>  <ALOGPS_SOLUBILITY>
4.47e+02 g/l

$$$$
 
  Mrv0541 02231214292D          
 
  8  7  0  0  1  0            999 V2000
   14.6656  -11.2582    0.0000 C   0  0  1  0  0  0  0  0  0  0  0  0
   15.3836  -10.8475    0.0000 C   0  0  0  0  0  0  0  0  0  0  0  0
   13.9476  -10.8372    0.0000 C   0  0  0  0  0  0  0  0  0  0  0  0
   14.6622  -12.0867    0.0000 N   0  0  0  0  0  0  0  0  0  0  0  0
   16.0948  -11.2651    0.0000 C   0  0  0  0  0  0  0  0  0  0  0  0
   15.3871  -10.0225    0.0000 C   0  0  0  0  0  0  0  0  0  0  0  0
   13.2330  -11.2479    0.0000 O   0  0  0  0  0  0  0  0  0  0  0  0
   13.9510  -10.0155    0.0000 O   0  0  0  0  0  0  0  0  0  0  0  0
  1  2  1  0  0  0  0
  1  3  1  0  0  0  0
  1  4  1  6  0  0  0
  2  5  1  0  0  0  0
  2  6  1  0  0  0  0
  3  7  1  0  0  0  0
  3  8  2  0  0  0  0
M  END
>  <DRUGBANK_ID>
DB00161

>  <DRUG_GROUPS>
approved; nutraceutical

>  <GENERIC_NAME>
L-Valine

>  <SYNONYMS>
(2S)-2-Amino-3-methylbutanoic acid; (S)-2-Amino-3-methylbutanoic acid; (S)-2-Amino-3-methylbutyric acid; (S)-a-Amino-b-methylbutyric acid; (S)-Valine; 2-Amino-3-methylbutanoic acid; 2-Amino-3-methylbutyric acid; L-(+)-a-Aminoisovaleric acid; L-a-Amino-b-methylbutyric acid; Valine

>  <CHEMICAL_FORMULA>
C5H11NO2

>  <MOLECULAR_WEIGHT>
117.1463

>  <EXACT_MASS>
117.078978601

>  <IUPAC_NAME>
(2S)-2-amino-3-methylbutanoic acid

>  <INCHI_IDENTIFIER>
InChI=1S/C5H11NO2/c1-3(2)4(6)5(7)8/h3-4H,6H2,1-2H3,(H,7,8)/t4-/m0/s1

>  <INCHI_KEY>
InChIKey=KZSNJWFQEVHDMF-BYPYZUCNSA-N

>  <SMILES>
CC(C)[C@H](N)C(O)=O

>  <JCHEM_ACCEPTOR_COUNT>
3

>  <JCHEM_DONOR_COUNT>
2

>  <JCHEM_ACIDIC_PKA>
2.72

>  <JCHEM_BASIC_PKA>
9.6

>  <JCHEM_PHYSIOLOGICAL_CHARGE>
0

>  <ALOGPS_LOGP>
-2.3

>  <JCHEM_LOGP>
-2

>  <ALOGPS_LOGS>
0.26

>  <JCHEM_POLARIZABILITY>
12.19

>  <JCHEM_POLAR_SURFACE_AREA>
63.32

>  <JCHEM_REFRACTIVITY>
29.49

>  <JCHEM_ROTATABLE_BOND_COUNT>
2

>  <ALOGPS_SOLUBILITY>
2.14e+02 g/l

$$$$
162
  Mrv0541 02231214292D          

 21 21  0  0  0  0            999 V2000
    2.0930    0.0000    0.0000 O   0  0  0  0  0  0  0  0  0  0  0  0
    9.9524    0.4125    0.0000 C   0  0  0  0  0  0  0  0  0  0  0  0
   10.6668    0.0000    0.0000 C   0  0  0  0  0  0  0  0  0  0  0  0
   10.6668   -0.8250    0.0000 C   0  0  0  0  0  0  0  0  0  0  0  0
    9.2379    0.0000    0.0000 C   0  0  0  0  0  0  0  0  0  0  0  0
    9.9524   -1.2375    0.0000 C   0  0  0  0  0  0  0  0  0  0  0  0
    9.2379   -0.8250    0.0000 C   0  0  0  0  0  0  0  0  0  0  0  0
   10.3649    1.1270    0.0000 C   0  0  0  0  0  0  0  0  0  0  0  0
    9.5398    1.1270    0.0000 C   0  0  0  0  0  0  0  0  0  0  0  0
    8.5234    0.4125    0.0000 C   0  0  0  0  0  0  0  0  0  0  0  0
    8.5234   -1.2375    0.0000 C   0  0  0  0  0  0  0  0  0  0  0  0
    7.8089    0.0000    0.0000 C   0  0  0  0  0  0  0  0  0  0  0  0
    7.0944    0.4125    0.0000 C   0  0  0  0  0  0  0  0  0  0  0  0
    7.0944    1.2375    0.0000 C   0  0  0  0  0  0  0  0  0  0  0  0
    6.3799    0.0000    0.0000 C   0  0  0  0  0  0  0  0  0  0  0  0
    5.6655    0.4125    0.0000 C   0  0  0  0  0  0  0  0  0  0  0  0
    4.9509    0.0000    0.0000 C   0  0  0  0  0  0  0  0  0  0  0  0
    4.2365    0.4125    0.0000 C   0  0  0  0  0  0  0  0  0  0  0  0
    4.2365    1.2375    0.0000 C   0  0  0  0  0  0  0  0  0  0  0  0
    3.5220    0.0000    0.0000 C   0  0  0  0  0  0  0  0  0  0  0  0
    2.8075    0.4125    0.0000 C   0  0  0  0  0  0  0  0  0  0  0  0
  1 21  1  0  0  0  0
  2  3  1  0  0  0  0
  2  5  1  0  0  0  0
  2  8  1  0  0  0  0
  2  9  1  0  0  0  0
  3  4  1  0  0  0  0
  4  6  1  0  0  0  0
  5  7  2  0  0  0  0
  5 10  1  0  0  0  0
  6  7  1  0  0  0  0
  7 11  1  0  0  0  0
 10 12  2  3  0  0  0
 12 13  1  0  0  0  0
 13 14  1  0  0  0  0
 13 15  2  3  0  0  0
 15 16  1  0  0  0  0
 16 17  2  3  0  0  0
 17 18  1  0  0  0  0
 18 19  1  0  0  0  0
 18 20  2  3  0  0  0
 20 21  1  0  0  0  0
M  END
>  <DRUGBANK_ID>
DB00162

>  <DRUG_GROUPS>
approved; nutraceutical

>  <GENERIC_NAME>
Vitamin A

>  <SYNONYMS>
[11,12-3H]-Retinol; all-trans-retinol; All-trans-Retinyl alcohol; all-trans-Vitamin A; All-trans-Vitamin A alcohol; all-trans-Vitamin A1; beta-Retinol; Retin-11,12-t2-ol (9CI); Retinol; trans-Retinol; trans-Vitamin A alcohol; Vitamin A (Feed); Vitamin A alcohol; Vitamin A cryst; Vitamin A Palmitate; Vitamin A Solubilized; Vitamin A1; Vitamin A1 alcohol

>  <BRANDS>
A-Mulsal; A-Sol; A-Vi-Pel; A-Vitan; Acon; Afaxin; Agiolan; Agoncal; Alcovit A; alin; Alphalin; Alphasterol; Anatola; Anatola A; Anti-Infective vitamin; Antixerophthalmic vitamin; Aoral; Apexol; Apostavit; Aquasol A Parenteral; Aquasynth; asterol; Atars; Atav; Avibon; Avita; Avitol; Axerol; Axerophthol; Bentavit A; Biosterol; Chocola A; Cylasphere; Del-VI-A; Disatabs Tabs; Dofsol; Dohyfral A; Epiteliol; Hi-A-Vita; Homagenets Aoral; Homagenets aorl; Lard Factor; Mvc Plus; Myvpack; Nio-A-Let; Oleovitamin A; Ophthalamin; Plivit A; Prepalin; Retrovitamin A; Ro-a-vit; Sehkraft A; Solu-A; Super A; Testavol; Testavol S; Thalasphere; tROL; Vaflol; Vafol; Veroftal; Vi-a; Vi-Alpha; Vi-Dom-A; Vio-A; Vitavel A; Vitpex; Vogan; Vogan-Neu; Vogan-nu; Zineb; Zinosan N

>  <CHEMICAL_FORMULA>
C20H30O

>  <MOLECULAR_WEIGHT>
286.4516

>  <EXACT_MASS>
286.229665582

>  <IUPAC_NAME>
3,7-dimethyl-9-(2,6,6-trimethylcyclohex-1-en-1-yl)nona-2,4,6,8-tetraen-1-ol

>  <INCHI_IDENTIFIER>
InChI=1S/C20H30O/c1-16(8-6-9-17(2)13-15-21)11-12-19-18(3)10-7-14-20(19,4)5/h6,8-9,11-13,21H,7,10,14-15H2,1-5H3/b9-6+,12-11+,16-8+,17-13+

>  <INCHI_KEY>
InChIKey=FPIPGXGPPPQFEQ-OVSJKPMPSA-N

>  <SMILES>
CC(=CCO)C=CC=C(C)C=CC1=C(C)CCCC1(C)C

>  <JCHEM_ACCEPTOR_COUNT>
1

>  <JCHEM_DONOR_COUNT>
1

>  <JCHEM_ACIDIC_PKA>
16.44

>  <JCHEM_BASIC_PKA>
-2.2

>  <JCHEM_PHYSIOLOGICAL_CHARGE>
0

>  <ALOGPS_LOGP>
6.38

>  <JCHEM_LOGP>
4.69

>  <ALOGPS_LOGS>
-4.6

>  <JCHEM_POLARIZABILITY>
36.54

>  <JCHEM_POLAR_SURFACE_AREA>
20.23

>  <JCHEM_REFRACTIVITY>
97.92

>  <JCHEM_ROTATABLE_BOND_COUNT>
5

>  <ALOGPS_SOLUBILITY>
7.58e-03 g/l

$$$$
163
  Mrv0541 02231214292D          

 31 32  0  0  1  0            999 V2000
    4.9740   -2.3009    0.0000 O   0  0  0  0  0  0  0  0  0  0  0  0
    2.0930   -0.6223    0.0000 O   0  0  0  0  0  0  0  0  0  0  0  0
    5.7215   -1.8770    0.0000 C   0  0  2  0  0  0  0  0  0  0  0  0
    6.5465   -1.8801    0.0000 C   0  0  0  0  0  0  0  0  0  0  0  0
    5.7215   -1.0177    0.0000 C   0  0  0  0  0  0  0  0  0  0  0  0
    6.9617   -1.1673    0.0000 C   0  0  0  0  0  0  0  0  0  0  0  0
    8.2021   -0.4576    0.0000 C   0  0  1  0  0  0  0  0  0  0  0  0
    7.7867   -1.1705    0.0000 C   0  0  0  0  0  0  0  0  0  0  0  0
    4.9740   -0.5937    0.0000 C   0  0  0  0  0  0  0  0  0  0  0  0
    9.0271   -0.4608    0.0000 C   0  0  0  0  0  0  0  0  0  0  0  0
    6.1313   -2.5930    0.0000 C   0  0  0  0  0  0  0  0  0  0  0  0
    4.2365   -1.0348    0.0000 C   0  0  0  0  0  0  0  0  0  0  0  0
    9.4423    0.2521    0.0000 C   0  0  0  0  0  0  0  0  0  0  0  0
    4.2365   -1.8598    0.0000 C   0  0  0  0  0  0  0  0  0  0  0  0
   10.2673    0.2490    0.0000 C   0  0  0  0  0  0  0  0  0  0  0  0
   10.6826    0.9619    0.0000 C   0  0  1  0  0  0  0  0  0  0  0  0
    7.7923    0.2585    0.0000 C   0  0  0  0  0  0  0  0  0  0  0  0
   11.5076    0.9587    0.0000 C   0  0  0  0  0  0  0  0  0  0  0  0
    3.5220   -0.6223    0.0000 C   0  0  0  0  0  0  0  0  0  0  0  0
    3.5220   -2.2723    0.0000 C   0  0  0  0  0  0  0  0  0  0  0  0
   11.9229    1.6716    0.0000 C   0  0  0  0  0  0  0  0  0  0  0  0
    2.8075   -1.8598    0.0000 C   0  0  0  0  0  0  0  0  0  0  0  0
   10.2729    1.6779    0.0000 C   0  0  0  0  0  0  0  0  0  0  0  0
    2.8075   -1.0348    0.0000 C   0  0  0  0  0  0  0  0  0  0  0  0
   12.7478    1.6683    0.0000 C   0  0  0  0  0  0  0  0  0  0  0  0
   13.1631    2.3812    0.0000 C   0  0  0  0  0  0  0  0  0  0  0  0
    3.5220    0.2027    0.0000 C   0  0  0  0  0  0  0  0  0  0  0  0
    3.5220   -3.0974    0.0000 C   0  0  0  0  0  0  0  0  0  0  0  0
    2.0930   -2.2723    0.0000 C   0  0  0  0  0  0  0  0  0  0  0  0
   12.7533    3.0974    0.0000 C   0  0  0  0  0  0  0  0  0  0  0  0
   13.9881    2.3781    0.0000 C   0  0  0  0  0  0  0  0  0  0  0  0
  1  3  1  0  0  0  0
  1 14  1  0  0  0  0
  2 24  1  0  0  0  0
  3  4  1  0  0  0  0
  3  5  1  0  0  0  0
  3 11  1  6  0  0  0
  4  6  1  0  0  0  0
  5  9  1  0  0  0  0
  6  8  1  0  0  0  0
  7  8  1  0  0  0  0
  7 10  1  0  0  0  0
  7 17  1  6  0  0  0
  9 12  1  0  0  0  0
 10 13  1  0  0  0  0
 12 14  2  0  0  0  0
 12 19  1  0  0  0  0
 13 15  1  0  0  0  0
 14 20  1  0  0  0  0
 15 16  1  0  0  0  0
 16 18  1  0  0  0  0
 16 23  1  6  0  0  0
 18 21  1  0  0  0  0
 19 24  2  0  0  0  0
 19 27  1  0  0  0  0
 20 22  2  0  0  0  0
 20 28  1  0  0  0  0
 21 25  1  0  0  0  0
 22 24  1  0  0  0  0
 22 29  1  0  0  0  0
 25 26  1  0  0  0  0
 26 30  1  0  0  0  0
 26 31  1  0  0  0  0
M  END
>  <DRUGBANK_ID>
DB00163

>  <DRUG_GROUPS>
approved; nutraceutical

>  <GENERIC_NAME>
Vitamin E

>  <SYNONYMS>
alpha-Tocopherol; Tocopherol

>  <BRANDS>
Amino-Opti-E; Aquasol E; Daltose; E-200 I.U. Softgels; E-Complex-600; E-Ferol; E-Vitamin succinate; Gordo-Vite E; Vitamin Plus E Softgells; Vitec

>  <CHEMICAL_FORMULA>
C29H50O2

>  <MOLECULAR_WEIGHT>
430.7061

>  <EXACT_MASS>
430.381080844

>  <IUPAC_NAME>
(2R)-2,5,7,8-tetramethyl-2-[(4R,8R)-4,8,12-trimethyltridecyl]-3,4-dihydro-2H-1-benzopyran-6-ol

>  <INCHI_IDENTIFIER>
InChI=1S/C29H50O2/c1-20(2)12-9-13-21(3)14-10-15-22(4)16-11-18-29(8)19-17-26-25(7)27(30)23(5)24(6)28(26)31-29/h20-22,30H,9-19H2,1-8H3/t21-,22-,29-/m1/s1

>  <INCHI_KEY>
InChIKey=GVJHHUAWPYXKBD-IEOSBIPESA-N

>  <SMILES>
CC(C)CCC[C@@H](C)CCC[C@@H](C)CCC[C@]1(C)CCC2=C(O1)C(C)=C(C)C(O)=C2C

>  <JCHEM_ACCEPTOR_COUNT>
2

>  <JCHEM_DONOR_COUNT>
1

>  <JCHEM_ACIDIC_PKA>
10.8

>  <JCHEM_BASIC_PKA>
-4.9

>  <JCHEM_PHYSIOLOGICAL_CHARGE>
0

>  <ALOGPS_LOGP>
8.84

>  <JCHEM_LOGP>
10.51

>  <ALOGPS_LOGS>
-7.8

>  <JCHEM_POLARIZABILITY>
55.29

>  <JCHEM_POLAR_SURFACE_AREA>
29.46

>  <JCHEM_REFRACTIVITY>
135.37

>  <JCHEM_ROTATABLE_BOND_COUNT>
12

>  <ALOGPS_SOLUBILITY>
7.04e-06 g/l

$$$$
165
  Mrv0541 02231214292D          

 12 12  0  0  0  0            999 V2000
    2.5098   -1.5964    0.0000 O   0  0  0  0  0  0  0  0  0  0  0  0
    2.5098    0.8787    0.0000 O   0  0  0  0  0  0  0  0  0  0  0  0
    4.6533    1.2912    0.0000 O   0  0  0  0  0  0  0  0  0  0  0  0
    4.6532   -1.1839    0.0000 N   0  0  0  0  0  0  0  0  0  0  0  0
    3.2243   -0.3589    0.0000 C   0  0  0  0  0  0  0  0  0  0  0  0
    3.9388    0.0537    0.0000 C   0  0  0  0  0  0  0  0  0  0  0  0
    3.2243   -1.1839    0.0000 C   0  0  0  0  0  0  0  0  0  0  0  0
    3.9388   -1.5964    0.0000 C   0  0  0  0  0  0  0  0  0  0  0  0
    2.5098    0.0536    0.0000 C   0  0  0  0  0  0  0  0  0  0  0  0
    3.9388    0.8786    0.0000 C   0  0  0  0  0  0  0  0  0  0  0  0
    4.6533   -0.3588    0.0000 C   0  0  0  0  0  0  0  0  0  0  0  0
    3.9387   -2.4214    0.0000 C   0  0  0  0  0  0  0  0  0  0  0  0
  1  7  1  0  0  0  0
  2  9  1  0  0  0  0
  3 10  1  0  0  0  0
  4  8  2  0  0  0  0
  4 11  1  0  0  0  0
  5  6  1  0  0  0  0
  5  7  2  0  0  0  0
  5  9  1  0  0  0  0
  6 10  1  0  0  0  0
  6 11  2  0  0  0  0
  7  8  1  0  0  0  0
  8 12  1  0  0  0  0
M  END
>  <DRUGBANK_ID>
DB00165

>  <DRUG_GROUPS>
approved; nutraceutical

>  <GENERIC_NAME>
Pyridoxine

>  <SYNONYMS>
Pyridoxol; Vitamin B6

>  <SALTS>
pyridoxine hydrochloride

>  <BRANDS>
Aderoxine; Alestrol; Becilan; Beesix; Benadon; Bonasanit; Campoviton 6; Gravidox; Hexa-Betalin; Hexavibex; Hexermin; Hexermine; Hexobion; Hydoxin; Nestrex; Pydox; Pyridipca; Pyridox; Rodex TD; Tex Six T.R.

>  <CHEMICAL_FORMULA>
C8H11NO3

>  <MOLECULAR_WEIGHT>
169.1778

>  <EXACT_MASS>
169.073893223

>  <IUPAC_NAME>
4,5-bis(hydroxymethyl)-2-methylpyridin-3-ol

>  <INCHI_IDENTIFIER>
InChI=1S/C8H11NO3/c1-5-8(12)7(4-11)6(3-10)2-9-5/h2,10-12H,3-4H2,1H3

>  <INCHI_KEY>
InChIKey=LXNHXLLTXMVWPM-UHFFFAOYSA-N

>  <SMILES>
CC1=NC=C(CO)C(CO)=C1O

>  <JCHEM_ACCEPTOR_COUNT>
4

>  <JCHEM_DONOR_COUNT>
3

>  <JCHEM_ACIDIC_PKA>
9.4

>  <JCHEM_BASIC_PKA>
5.58

>  <JCHEM_PHYSIOLOGICAL_CHARGE>
0

>  <ALOGPS_LOGP>
-0.57

>  <JCHEM_LOGP>
-0.95

>  <ALOGPS_LOGS>
-1

>  <JCHEM_POLARIZABILITY>
17.12

>  <JCHEM_POLAR_SURFACE_AREA>
73.58

>  <JCHEM_REFRACTIVITY>
44.11

>  <JCHEM_ROTATABLE_BOND_COUNT>
2

>  <ALOGPS_SOLUBILITY>
1.61e+01 g/l

$$$$

  Mrv0541 04191212102D          

 12 12  0  0  0  0            999 V2000
   -0.0308    0.7026    0.0000 C   0  0  0  0  0  0  0  0  0  0  0  0
    0.3817   -0.5669    0.0000 S   0  0  0  0  0  0  0  0  0  0  0  0
   -0.6982    0.2177    0.0000 C   0  0  0  0  0  0  0  0  0  0  0  0
   -0.4433   -0.5669    0.0000 S   0  0  0  0  0  0  0  0  0  0  0  0
    0.6366    0.2177    0.0000 C   0  0  0  0  0  0  0  0  0  0  0  0
    1.3511    0.6302    0.0000 C   0  0  0  0  0  0  0  0  0  0  0  0
    2.0656    0.2177    0.0000 C   0  0  0  0  0  0  0  0  0  0  0  0
    2.7801    0.6302    0.0000 C   0  0  0  0  0  0  0  0  0  0  0  0
    3.4945    0.2177    0.0000 C   0  0  0  0  0  0  0  0  0  0  0  0
    4.2090    0.6302    0.0000 C   0  0  0  0  0  0  0  0  0  0  0  0
    4.2090    1.4552    0.0000 O   0  0  0  0  0  0  0  0  0  0  0  0
    4.9235    0.2177    0.0000 O   0  0  0  0  0  0  0  0  0  0  0  0
  5  1  1  0  0  0  0
  5  2  1  0  0  0  0
  1  3  1  0  0  0  0
  2  4  1  0  0  0  0
  3  4  1  0  0  0  0
  5  6  1  0  0  0  0
  6  7  1  0  0  0  0
  7  8  1  0  0  0  0
  8  9  1  0  0  0  0
  9 10  1  0  0  0  0
 10 12  1  0  0  0  0
 10 11  2  0  0  0  0
M  END
>  <DRUGBANK_ID>
DB00166

>  <DRUG_GROUPS>
approved; nutraceutical

>  <GENERIC_NAME>
Lipoic Acid

>  <SYNONYMS>
1,2-Dithiolane-3R-pentanoic acid; alpha-Lipoic acid; Lipoate; Thioctic acid

>  <BRANDS>
Biletan; Heparlipon; Thioctsan

>  <CHEMICAL_FORMULA>
C8H14O2S2

>  <MOLECULAR_WEIGHT>
206.326

>  <EXACT_MASS>
206.043521072

>  <IUPAC_NAME>
5-(1,2-dithiolan-3-yl)pentanoic acid

>  <INCHI_IDENTIFIER>
InChI=1S/C8H14O2S2/c9-8(10)4-2-1-3-7-5-6-11-12-7/h7H,1-6H2,(H,9,10)

>  <INCHI_KEY>
InChIKey=AGBQKNBQESQNJD-UHFFFAOYSA-N

>  <SMILES>
OC(=O)CCCCC1CCSS1

>  <JCHEM_ACCEPTOR_COUNT>
2

>  <JCHEM_DONOR_COUNT>
1

>  <JCHEM_ACIDIC_PKA>
4.52

>  <JCHEM_PHYSIOLOGICAL_CHARGE>
-1

>  <ALOGPS_LOGP>
2.75

>  <JCHEM_LOGP>
2.11

>  <ALOGPS_LOGS>
-3

>  <JCHEM_POLARIZABILITY>
22

>  <JCHEM_POLAR_SURFACE_AREA>
37.3

>  <JCHEM_REFRACTIVITY>
54.37

>  <JCHEM_ROTATABLE_BOND_COUNT>
5

>  <ALOGPS_SOLUBILITY>
2.24e-01 g/l

$$$$
167
  Mrv0541 02231214292D          

  9  8  0  0  1  0            999 V2000
    5.2224   -0.0784    0.0000 O   0  0  0  0  0  0  0  0  0  0  0  0
    4.5080    1.1592    0.0000 O   0  0  0  0  0  0  0  0  0  0  0  0
    3.7935   -0.9034    0.0000 N   0  0  0  0  0  0  0  0  0  0  0  0
    3.0791    0.3341    0.0000 C   0  0  2  0  0  0  0  0  0  0  0  0
    3.7935   -0.0784    0.0000 C   0  0  1  0  0  0  0  0  0  0  0  0
    2.3645   -0.0784    0.0000 C   0  0  0  0  0  0  0  0  0  0  0  0
    3.0791    1.1592    0.0000 C   0  0  0  0  0  0  0  0  0  0  0  0
    1.6500    0.3341    0.0000 C   0  0  0  0  0  0  0  0  0  0  0  0
    4.5080    0.3341    0.0000 C   0  0  0  0  0  0  0  0  0  0  0  0
  1  9  1  0  0  0  0
  2  9  2  0  0  0  0
  5  3  1  1  0  0  0
  4  5  1  0  0  0  0
  4  6  1  0  0  0  0
  4  7  1  6  0  0  0
  5  9  1  0  0  0  0
  6  8  1  0  0  0  0
M  END
>  <DRUGBANK_ID>
DB00167

>  <DRUG_GROUPS>
approved; nutraceutical

>  <GENERIC_NAME>
L-Isoleucine

>  <SYNONYMS>
(2S,3S)-2-Amino-3-methylpentanoic acid; (2S,3S)-a-Amino-b-methyl-n-valeric acid; (2S,3S)-a-Amino-b-methylvaleric acid; (S,S)-Isoleucine; (S)-Isoleucine; 2-Amino-3-methylvaleric acid; 2S,3S-Isoleucine; erythro-L-Isoleucine; Isoleucine; L-(+)-Isoleucine; L-Ile

>  <CHEMICAL_FORMULA>
C6H13NO2

>  <MOLECULAR_WEIGHT>
131.1729

>  <EXACT_MASS>
131.094628665

>  <IUPAC_NAME>
(2S,3S)-2-amino-3-methylpentanoic acid

>  <INCHI_IDENTIFIER>
InChI=1S/C6H13NO2/c1-3-4(2)5(7)6(8)9/h4-5H,3,7H2,1-2H3,(H,8,9)/t4-,5-/m0/s1

>  <INCHI_KEY>
InChIKey=AGPKZVBTJJNPAG-WHFBIAKZSA-N

>  <SMILES>
CC[C@H](C)[C@H](N)C(O)=O

>  <JCHEM_ACCEPTOR_COUNT>
3

>  <JCHEM_DONOR_COUNT>
2

>  <JCHEM_ACIDIC_PKA>
2.79

>  <JCHEM_BASIC_PKA>
9.59

>  <JCHEM_PHYSIOLOGICAL_CHARGE>
0

>  <ALOGPS_LOGP>
-1.7

>  <JCHEM_LOGP>
-1.5

>  <ALOGPS_LOGS>
-0.06

>  <JCHEM_POLARIZABILITY>
14.11

>  <JCHEM_POLAR_SURFACE_AREA>
63.32

>  <JCHEM_REFRACTIVITY>
34.09

>  <JCHEM_ROTATABLE_BOND_COUNT>
3

>  <ALOGPS_SOLUBILITY>
1.14e+02 g/l

$$$$

  Mrv0541 04191212102D          

 21 21  0  0  0  0            999 V2000
   -4.5964   -0.8839    0.0000 C   0  0  0  0  0  0  0  0  0  0  0  0
   -3.8820   -0.4714    0.0000 C   0  0  0  0  0  0  0  0  0  0  0  0
   -3.1675   -0.8839    0.0000 C   0  0  1  0  0  0  0  0  0  0  0  0
   -2.4530   -0.4714    0.0000 C   0  0  0  0  0  0  0  0  0  0  0  0
   -1.7385   -0.8839    0.0000 N   0  0  0  0  0  0  0  0  0  0  0  0
   -1.0241   -0.4714    0.0000 C   0  0  1  0  0  0  0  0  0  0  0  0
   -0.3096   -0.8839    0.0000 C   0  0  0  0  0  0  0  0  0  0  0  0
    0.4049   -0.4714    0.0000 C   0  0  0  0  0  0  0  0  0  0  0  0
    1.1193    0.7661    0.0000 C   0  0  0  0  0  0  0  0  0  0  0  0
    0.4049    0.3536    0.0000 C   0  0  0  0  0  0  0  0  0  0  0  0
    1.1193   -0.8839    0.0000 C   0  0  0  0  0  0  0  0  0  0  0  0
    1.8338   -0.4714    0.0000 C   0  0  0  0  0  0  0  0  0  0  0  0
    1.8338    0.3536    0.0000 C   0  0  0  0  0  0  0  0  0  0  0  0
   -4.5964   -1.7089    0.0000 O   0  0  0  0  0  0  0  0  0  0  0  0
   -5.3109   -0.4714    0.0000 O   0  0  0  0  0  0  0  0  0  0  0  0
   -3.1675   -1.7089    0.0000 N   0  0  0  0  0  0  0  0  0  0  0  0
   -2.4530    0.3536    0.0000 O   0  0  0  0  0  0  0  0  0  0  0  0
   -1.0241    0.3536    0.0000 C   0  0  0  0  0  0  0  0  0  0  0  0
   -1.7385    0.7661    0.0000 O   0  0  0  0  0  0  0  0  0  0  0  0
   -0.3096    0.7661    0.0000 O   0  0  0  0  0  0  0  0  0  0  0  0
   -0.3096    1.5911    0.0000 C   0  0  0  0  0  0  0  0  0  0  0  0
  1  2  1  0  0  0  0
  2  3  1  0  0  0  0
  3  4  1  0  0  0  0
  4  5  1  0  0  0  0
  5  6  1  0  0  0  0
  6  7  1  0  0  0  0
  7  8  1  0  0  0  0
 10  8  2  0  0  0  0
  8 11  1  0  0  0  0
  9 10  1  0  0  0  0
  9 13  2  0  0  0  0
 11 12  2  0  0  0  0
 12 13  1  0  0  0  0
  1 14  2  0  0  0  0
  1 15  1  0  0  0  0
  3 16  1  1  0  0  0
  4 17  2  0  0  0  0
  6 18  1  6  0  0  0
 18 19  2  0  0  0  0
 18 20  1  0  0  0  0
 20 21  1  0  0  0  0
M  END
>  <DRUGBANK_ID>
DB00168

>  <DRUG_GROUPS>
approved; nutraceutical

>  <GENERIC_NAME>
Aspartame

>  <SYNONYMS>
1-Methyl N-L-alpha-aspartyl-L-phenylalanate; 1-Methyl N-L-alpha-aspartyl-L-phenylalanine; 3-Amino-N-(alpha-carboxyphenethyl)succinamic acid N-methyl ester; 3-Amino-N-(alpha-carboxyphenethyl)succinamic acid N-methyl ester, stereoisomer; 3-Amino-N-(alpha-methoxycarbonylphenethyl) succinamic acid; Asp-phe-ome; Aspartam [INN-French]; Aspartame [USAN:BAN:INN]; Aspartamo [INN-Spanish]; Aspartamum [INN-Latin]; Aspartylphenylalanine methyl ester; L-Aspartyl-L-phenylalanine methyl ester; Methyl aspartylphenylalanate; Methyl L-alpha-aspartyl-L-phenylalanate; Methyl L-aspartyl-L-phenylalanine; Methyl N-L-alpha-aspartyl-L-phenylalaninate; N-L-alpha-Aspartyl-L-phenylalanine 1-methyl ester

>  <BRANDS>
Aminosweet; Canderel; Equal; Nutrasweet; Tri-sweet

>  <CHEMICAL_FORMULA>
C14H18N2O5

>  <MOLECULAR_WEIGHT>
294.3031

>  <EXACT_MASS>
294.121571696

>  <IUPAC_NAME>
(3S)-3-amino-3-{[(2S)-1-methoxy-1-oxo-3-phenylpropan-2-yl]carbamoyl}propanoic acid

>  <INCHI_IDENTIFIER>
InChI=1S/C14H18N2O5/c1-21-14(20)11(7-9-5-3-2-4-6-9)16-13(19)10(15)8-12(17)18/h2-6,10-11H,7-8,15H2,1H3,(H,16,19)(H,17,18)/t10-,11-/m0/s1

>  <INCHI_KEY>
InChIKey=IAOZJIPTCAWIRG-QWRGUYRKSA-N

>  <SMILES>
COC(=O)[C@H](CC1=CC=CC=C1)NC(=O)[C@@H](N)CC(O)=O

>  <JCHEM_ACCEPTOR_COUNT>
5

>  <JCHEM_DONOR_COUNT>
3

>  <JCHEM_ACIDIC_PKA>
3.53

>  <JCHEM_BASIC_PKA>
8.53

>  <JCHEM_PHYSIOLOGICAL_CHARGE>
0

>  <ALOGPS_LOGP>
-1.2

>  <JCHEM_LOGP>
-2.2

>  <ALOGPS_LOGS>
-2.6

>  <JCHEM_POLARIZABILITY>
29.58

>  <JCHEM_POLAR_SURFACE_AREA>
118.72

>  <JCHEM_REFRACTIVITY>
73.22

>  <JCHEM_ROTATABLE_BOND_COUNT>
8

>  <ALOGPS_SOLUBILITY>
6.52e-01 g/l

$$$$

  Mrv0541 04191212102D          

 30 32  0  0  1  0            999 V2000
   -1.0890    1.2765    0.0000 C   0  0  0  0  0  0  0  0  0  0  0  0
   -1.0890   -0.3735    0.0000 C   0  0  0  0  0  0  0  0  0  0  0  0
    0.4101   -0.2159    0.0000 C   0  0  0  0  0  0  0  0  0  0  0  0
    0.8950    0.4515    0.0000 C   0  0  0  0  0  0  0  0  0  0  0  0
   -1.8035    0.8640    0.0000 C   0  0  0  0  0  0  0  0  0  0  0  0
   -1.0890   -1.1985    0.0000 C   0  0  0  0  0  0  0  0  0  0  0  0
   -1.8035    0.0390    0.0000 C   0  0  0  0  0  0  0  0  0  0  0  0
   -1.8035   -1.6110    0.0000 C   0  0  0  0  0  0  0  0  0  0  0  0
   -1.8035   -2.4360    0.0000 C   0  0  0  0  0  0  0  0  0  0  0  0
   -1.0890   -2.8485    0.0000 C   0  0  0  0  0  0  0  0  0  0  0  0
   -2.5179   -2.8485    0.0000 C   0  0  0  0  0  0  0  0  0  0  0  0
   -1.0890   -3.6735    0.0000 C   0  0  0  0  0  0  0  0  0  0  0  0
   -0.3745   -2.4360    0.0000 C   0  0  0  0  0  0  0  0  0  0  0  0
   -2.5179   -3.6735    0.0000 C   0  0  2  0  0  0  0  0  0  0  0  0
   -1.8035   -4.0860    0.0000 C   0  0  0  0  0  0  0  0  0  0  0  0
   -3.2324   -4.0860    0.0000 O   0  0  0  0  0  0  0  0  0  0  0  0
   -0.3044    2.3565    0.0000 C   0  0  0  0  0  0  0  0  0  0  0  0
    0.4101    1.9440    0.0000 C   0  0  2  0  0  0  0  0  0  0  0  0
    1.1246    2.3565    0.0000 C   0  0  0  0  0  0  0  0  0  0  0  0
    1.8390    1.9440    0.0000 C   0  0  0  0  0  0  0  0  0  0  0  0
    3.9825    2.3565    0.0000 C   0  0  0  0  0  0  0  0  0  0  0  0
    3.2680    1.9440    0.0000 C   0  0  0  0  0  0  0  0  0  0  0  0
    3.2680    1.1190    0.0000 C   0  0  0  0  0  0  0  0  0  0  0  0
    2.5535    2.3565    0.0000 C   0  0  0  0  0  0  0  0  0  0  0  0
    0.4101    1.1190    0.0000 C   0  0  2  0  0  0  0  0  0  0  0  0
    1.1246    1.5315    0.0000 H   0  0  0  0  0  0  0  0  0  0  0  0
   -0.3745    0.0390    0.0000 C   0  0  2  0  0  0  0  0  0  0  0  0
   -0.3745   -0.7860    0.0000 H   0  0  0  0  0  0  0  0  0  0  0  0
   -0.3745    0.8640    0.0000 C   0  0  2  0  0  0  0  0  0  0  0  0
   -0.3745    1.6890    0.0000 C   0  0  0  0  0  0  0  0  0  0  0  0
 27 29  1  0  0  0  0
 29 25  1  0  0  0  0
 29  1  1  0  0  0  0
 27  2  1  0  0  0  0
 27  3  1  0  0  0  0
 25  4  1  0  0  0  0
  1  5  1  0  0  0  0
  2  6  2  0  0  0  0
  2  7  1  0  0  0  0
  6  8  1  0  0  0  0
  8  9  2  0  0  0  0
  9 10  1  0  0  0  0
  9 11  1  0  0  0  0
 10 12  1  0  0  0  0
 10 13  2  0  0  0  0
 11 14  1  0  0  0  0
 12 15  1  0  0  0  0
 14 16  1  6  0  0  0
  3  4  1  0  0  0  0
  5  7  1  0  0  0  0
 14 15  1  0  0  0  0
 25 18  1  0  0  0  0
 18 17  1  6  0  0  0
 18 19  1  0  0  0  0
 19 20  1  0  0  0  0
 20 24  1  0  0  0  0
 24 22  1  0  0  0  0
 22 21  1  0  0  0  0
 22 23  1  0  0  0  0
 25 26  1  6  0  0  0
 27 28  1  6  0  0  0
 29 30  1  1  0  0  0
M  END
>  <DRUGBANK_ID>
DB00169

>  <DRUG_GROUPS>
approved; nutraceutical

>  <GENERIC_NAME>
Cholecalciferol

>  <SYNONYMS>
(+)-vitamin D3; calciol; CC; Colecalciferol; Vitamin D3

>  <BRANDS>
Delsterol; Delta-D; Deparal; Ebivit; Micro-Dee; Oleovitamin D3; Provitamin D3; Provitamine; Provitina; Ricketon; Trivitan; Vigantol; Vigorsan

>  <CHEMICAL_FORMULA>
C27H44O

>  <MOLECULAR_WEIGHT>
384.6377

>  <EXACT_MASS>
384.33921603

>  <IUPAC_NAME>
(1S,3Z)-3-{2-[(1R,3aS,4E,7aR)-7a-methyl-1-[(2R)-6-methylheptan-2-yl]-octahydro-1H-inden-4-ylidene]ethylidene}-4-methylidenecyclohexan-1-ol

>  <INCHI_IDENTIFIER>
InChI=1S/C27H44O/c1-19(2)8-6-9-21(4)25-15-16-26-22(10-7-17-27(25,26)5)12-13-23-18-24(28)14-11-20(23)3/h12-13,19,21,24-26,28H,3,6-11,14-18H2,1-2,4-5H3/b22-12+,23-13-/t21-,24+,25-,26+,27-/m1/s1

>  <INCHI_KEY>
InChIKey=QYSXJUFSXHHAJI-YRZJJWOYSA-N

>  <SMILES>
CC(C)CCC[C@@H](C)[C@@]1([H])CC[C@@]2([H])\C(CCC[C@]12C)=C\C=C1\C[C@@H](O)CCC1=C

>  <JCHEM_ACCEPTOR_COUNT>
1

>  <JCHEM_DONOR_COUNT>
1

>  <JCHEM_ACIDIC_PKA>
18.38

>  <JCHEM_BASIC_PKA>
-1.3

>  <JCHEM_PHYSIOLOGICAL_CHARGE>
0

>  <ALOGPS_LOGP>
7.98

>  <JCHEM_LOGP>
7.13

>  <ALOGPS_LOGS>
-6

>  <JCHEM_POLARIZABILITY>
49.6

>  <JCHEM_POLAR_SURFACE_AREA>
20.23

>  <JCHEM_REFRACTIVITY>
123.22

>  <JCHEM_ROTATABLE_BOND_COUNT>
6

>  <ALOGPS_SOLUBILITY>
3.80e-04 g/l

$$$$
170
  Mrv0541 02231214292D          

 13 14  0  0  0  0            999 V2000
    3.0786   -1.6498    0.0000 O   0  0  0  0  0  0  0  0  0  0  0  0
    3.0786    1.6498    0.0000 O   0  0  0  0  0  0  0  0  0  0  0  0
    3.7929   -0.4124    0.0000 C   0  0  0  0  0  0  0  0  0  0  0  0
    3.7929    0.4124    0.0000 C   0  0  0  0  0  0  0  0  0  0  0  0
    2.3641   -0.4124    0.0000 C   0  0  0  0  0  0  0  0  0  0  0  0
    3.0786   -0.8249    0.0000 C   0  0  0  0  0  0  0  0  0  0  0  0
    3.0786    0.8249    0.0000 C   0  0  0  0  0  0  0  0  0  0  0  0
    2.3641    0.4124    0.0000 C   0  0  0  0  0  0  0  0  0  0  0  0
    4.5303   -0.8535    0.0000 C   0  0  0  0  0  0  0  0  0  0  0  0
    4.5303    0.8535    0.0000 C   0  0  0  0  0  0  0  0  0  0  0  0
    1.6498   -0.8249    0.0000 C   0  0  0  0  0  0  0  0  0  0  0  0
    5.2777   -0.4296    0.0000 C   0  0  0  0  0  0  0  0  0  0  0  0
    5.2777    0.4296    0.0000 C   0  0  0  0  0  0  0  0  0  0  0  0
  1  6  2  0  0  0  0
  2  7  2  0  0  0  0
  3  4  1  0  0  0  0
  3  6  1  0  0  0  0
  3  9  2  0  0  0  0
  4  7  1  0  0  0  0
  4 10  2  0  0  0  0
  5  6  1  0  0  0  0
  5  8  2  0  0  0  0
  5 11  1  0  0  0  0
  7  8  1  0  0  0  0
  9 12  1  0  0  0  0
 10 13  1  0  0  0  0
 12 13  2  0  0  0  0
M  END
>  <DRUGBANK_ID>
DB00170

>  <DRUG_GROUPS>
approved; nutraceutical

>  <GENERIC_NAME>
Menadione

>  <SYNONYMS>
2-Methyl-1,4-Naphthalenedione; 2-Methyl-1,4-naphthoquinone; Kayquinone; Menaphthone; Thyloquinone; Vitamin K 3; Vitamin K3

>  <BRANDS>
Kappaxin; Kayklot; Klottone; Kolklot; Panosine; Synkavite; Synkayvite

>  <CHEMICAL_FORMULA>
C11H8O2

>  <MOLECULAR_WEIGHT>
172.18

>  <EXACT_MASS>
172.0524295

>  <IUPAC_NAME>
2-methyl-1,4-dihydronaphthalene-1,4-dione

>  <INCHI_IDENTIFIER>
InChI=1S/C11H8O2/c1-7-6-10(12)8-4-2-3-5-9(8)11(7)13/h2-6H,1H3

>  <INCHI_KEY>
InChIKey=MJVAVZPDRWSRRC-UHFFFAOYSA-N

>  <SMILES>
CC1=CC(=O)C2=CC=CC=C2C1=O

>  <JCHEM_ACCEPTOR_COUNT>
2

>  <JCHEM_DONOR_COUNT>
0

>  <JCHEM_ACIDIC_PKA>
12.94

>  <JCHEM_BASIC_PKA>
-7.2

>  <JCHEM_PHYSIOLOGICAL_CHARGE>
0

>  <ALOGPS_LOGP>
1.91

>  <JCHEM_LOGP>
1.89

>  <ALOGPS_LOGS>
-2.5

>  <JCHEM_POLARIZABILITY>
17.64

>  <JCHEM_POLAR_SURFACE_AREA>
34.14

>  <JCHEM_REFRACTIVITY>
50.54

>  <JCHEM_ROTATABLE_BOND_COUNT>
0

>  <ALOGPS_SOLUBILITY>
5.04e-01 g/l

$$$$
171
  Mrv0541 02231214292D          

 31 33  0  0  1  0            999 V2000
    6.9922    1.8744    0.0000 P   0  0  2  0  0  0  0  0  0  0  0  0
    8.4135    2.0213    0.0000 P   0  0  2  0  0  0  0  0  0  0  0  0
    9.8349    2.1682    0.0000 P   0  0  0  0  0  0  0  0  0  0  0  0
    4.9010    0.4187    0.0000 O   0  0  0  0  0  0  0  0  0  0  0  0
    2.8071    0.8348    0.0000 O   0  0  0  0  0  0  0  0  0  0  0  0
    3.8647    2.2851    0.0000 O   0  0  0  0  0  0  0  0  0  0  0  0
    6.3238    1.3906    0.0000 O   0  0  0  0  0  0  0  0  0  0  0  0
    7.6604    2.3582    0.0000 O   0  0  0  0  0  0  0  0  0  0  0  0
    7.4759    1.2061    0.0000 O   0  0  0  0  0  0  0  0  0  0  0  0
    6.5084    2.5427    0.0000 O   0  0  0  0  0  0  0  0  0  0  0  0
    9.1667    1.6844    0.0000 O   0  0  0  0  0  0  0  0  0  0  0  0
    8.7504    2.7744    0.0000 O   0  0  0  0  0  0  0  0  0  0  0  0
    8.0766    1.2682    0.0000 O   0  0  0  0  0  0  0  0  0  0  0  0
   10.5032    2.6520    0.0000 O   0  0  0  0  0  0  0  0  0  0  0  0
   10.3187    1.5000    0.0000 O   0  0  0  0  0  0  0  0  0  0  0  0
    9.3511    2.8365    0.0000 O   0  0  0  0  0  0  0  0  0  0  0  0
    3.8597   -0.6191    0.0000 N   0  0  0  0  0  0  0  0  0  0  0  0
    3.8597   -1.9469    0.0000 N   0  0  0  0  0  0  0  0  0  0  0  0
    2.3645   -0.4580    0.0000 N   0  0  0  0  0  0  0  0  0  0  0  0
    1.6500   -1.6955    0.0000 N   0  0  0  0  0  0  0  0  0  0  0  0
    2.3645   -2.9330    0.0000 N   0  0  0  0  0  0  0  0  0  0  0  0
    3.6321    0.8334    0.0000 C   0  0  2  0  0  0  0  0  0  0  0  0
    4.1182    1.5000    0.0000 C   0  0  1  0  0  0  0  0  0  0  0  0
    4.1159    0.1652    0.0000 C   0  0  1  0  0  0  0  0  0  0  0  0
    4.9025    1.2437    0.0000 C   0  0  1  0  0  0  0  0  0  0  0  0
    5.5707    1.7275    0.0000 C   0  0  0  0  0  0  0  0  0  0  0  0
    3.0790   -0.8705    0.0000 C   0  0  0  0  0  0  0  0  0  0  0  0
    4.3411   -1.2830    0.0000 C   0  0  0  0  0  0  0  0  0  0  0  0
    3.0790   -1.6955    0.0000 C   0  0  0  0  0  0  0  0  0  0  0  0
    2.3645   -2.1080    0.0000 C   0  0  0  0  0  0  0  0  0  0  0  0
    1.6500   -0.8705    0.0000 C   0  0  0  0  0  0  0  0  0  0  0  0
  1  7  1  0  0  0  0
  1  8  1  0  0  0  0
  1  9  1  1  0  0  0
  1 10  2  0  0  0  0
  2  8  1  0  0  0  0
  2 11  1  0  0  0  0
  2 12  1  6  0  0  0
  2 13  2  0  0  0  0
  3 11  1  0  0  0  0
  3 14  1  0  0  0  0
  3 15  1  0  0  0  0
  3 16  2  0  0  0  0
  4 24  1  0  0  0  0
  4 25  1  0  0  0  0
 22  5  1  6  0  0  0
 23  6  1  6  0  0  0
  7 26  1  0  0  0  0
 24 17  1  1  0  0  0
 17 27  1  0  0  0  0
 17 28  1  0  0  0  0
 18 28  2  0  0  0  0
 18 29  1  0  0  0  0
 19 27  2  0  0  0  0
 19 31  1  0  0  0  0
 20 30  1  0  0  0  0
 20 31  2  0  0  0  0
 21 30  1  0  0  0  0
 22 23  1  0  0  0  0
 22 24  1  0  0  0  0
 23 25  1  0  0  0  0
 25 26  1  1  0  0  0
 27 29  1  0  0  0  0
 29 30  2  0  0  0  0
M  END
>  <DRUGBANK_ID>
DB00171

>  <DRUG_GROUPS>
approved; nutraceutical

>  <GENERIC_NAME>
Adenosine triphosphate

>  <SYNONYMS>
5'-ATP; Adenosine 5'-triphosphate; Adenosine 5'-triphosphoric acid; Adenosine-5'-triphosphate; Adenosine, 5'-(tetrahydrogen triphosphate); Adenylpyrophosphoric acid; ATP; Triphosphoric acid adenosine ester

>  <BRANDS>
Adephos; Adetol; Adynol; Atipi; Atriphos; Cardenosine; Fosfobion; Glucobasin; Myotriphos; Phosphobion; Striadyne; Triadenyl; Triphosphaden

>  <CHEMICAL_FORMULA>
C10H16N5O13P3

>  <MOLECULAR_WEIGHT>
507.181

>  <EXACT_MASS>
506.995745159

>  <IUPAC_NAME>
({[({[(2R,3S,4R,5R)-5-(6-amino-9H-purin-9-yl)-3,4-dihydroxyoxolan-2-yl]methoxy}(hydroxy)phosphoryl)oxy](hydroxy)phosphoryl}oxy)phosphonic acid

>  <INCHI_IDENTIFIER>
InChI=1S/C10H16N5O13P3/c11-8-5-9(13-2-12-8)15(3-14-5)10-7(17)6(16)4(26-10)1-25-30(21,22)28-31(23,24)27-29(18,19)20/h2-4,6-7,10,16-17H,1H2,(H,21,22)(H,23,24)(H2,11,12,13)(H2,18,19,20)/t4-,6-,7-,10-/m1/s1

>  <INCHI_KEY>
InChIKey=ZKHQWZAMYRWXGA-KQYNXXCUSA-N

>  <SMILES>
NC1=C2N=CN([C@@H]3O[C@H](CO[P@](O)(=O)O[P@](O)(=O)OP(O)(O)=O)[C@@H](O)[C@H]3O)C2=NC=N1

>  <JCHEM_ACCEPTOR_COUNT>
14

>  <JCHEM_DONOR_COUNT>
7

>  <JCHEM_ACIDIC_PKA>
0.9

>  <JCHEM_BASIC_PKA>
5

>  <JCHEM_PHYSIOLOGICAL_CHARGE>
-3

>  <ALOGPS_LOGP>
-0.84

>  <JCHEM_LOGP>
-6.2

>  <ALOGPS_LOGS>
-2

>  <JCHEM_POLARIZABILITY>
38.61

>  <JCHEM_POLAR_SURFACE_AREA>
279.13

>  <JCHEM_REFRACTIVITY>
95.81

>  <JCHEM_ROTATABLE_BOND_COUNT>
8

>  <ALOGPS_SOLUBILITY>
4.49e+00 g/l

$$$$
172
  Mrv0541 02231214292D          

  8  8  0  0  1  0            999 V2000
    4.3828    0.4358    0.0000 O   0  0  0  0  0  0  0  0  0  0  0  0
    3.9413   -0.9233    0.0000 O   0  0  0  0  0  0  0  0  0  0  0  0
    2.3176   -0.3463    0.0000 N   0  0  0  0  0  0  0  0  0  0  0  0
    2.9850    0.1387    0.0000 C   0  0  1  0  0  0  0  0  0  0  0  0
    2.7301    0.9233    0.0000 C   0  0  0  0  0  0  0  0  0  0  0  0
    1.9050    0.9233    0.0000 C   0  0  0  0  0  0  0  0  0  0  0  0
    1.6501    0.1387    0.0000 C   0  0  0  0  0  0  0  0  0  0  0  0
    3.7697   -0.1163    0.0000 C   0  0  0  0  0  0  0  0  0  0  0  0
  1  8  1  0  0  0  0
  2  8  2  0  0  0  0
  3  4  1  0  0  0  0
  3  7  1  0  0  0  0
  4  5  1  0  0  0  0
  4  8  1  1  0  0  0
  5  6  1  0  0  0  0
  6  7  1  0  0  0  0
M  END
>  <DRUGBANK_ID>
DB00172

>  <DRUG_GROUPS>
approved; nutraceutical

>  <GENERIC_NAME>
L-Proline

>  <SYNONYMS>
(-)-2-Pyrrolidinecarboxylic acid; (-)-Proline; (S)-2-Carboxypyrrolidine; (S)-2-Pyrrolidinecarboxylic acid; (S)-Proline; 2-Pyrrolidinecarboxylic acid

>  <CHEMICAL_FORMULA>
C5H9NO2

>  <MOLECULAR_WEIGHT>
115.1305

>  <EXACT_MASS>
115.063328537

>  <IUPAC_NAME>
(2S)-pyrrolidine-2-carboxylic acid

>  <INCHI_IDENTIFIER>
InChI=1S/C5H9NO2/c7-5(8)4-2-1-3-6-4/h4,6H,1-3H2,(H,7,8)/t4-/m0/s1

>  <INCHI_KEY>
InChIKey=ONIBWKKTOPOVIA-BYPYZUCNSA-N

>  <SMILES>
OC(=O)[C@@H]1CCCN1

>  <JCHEM_ACCEPTOR_COUNT>
3

>  <JCHEM_DONOR_COUNT>
2

>  <JCHEM_ACIDIC_PKA>
1.94

>  <JCHEM_BASIC_PKA>
11.33

>  <JCHEM_PHYSIOLOGICAL_CHARGE>
0

>  <ALOGPS_LOGP>
-2.7

>  <JCHEM_LOGP>
-2.6

>  <ALOGPS_LOGS>
0.5

>  <JCHEM_POLARIZABILITY>
11.5

>  <JCHEM_POLAR_SURFACE_AREA>
49.33

>  <JCHEM_REFRACTIVITY>
28.06

>  <JCHEM_ROTATABLE_BOND_COUNT>
1

>  <ALOGPS_SOLUBILITY>
3.65e+02 g/l

$$$$
173
  Mrv0541 02231214292D          

 10 11  0  0  0  0            999 V2000
    3.8596    0.1235    0.0000 N   0  0  0  0  0  0  0  0  0  0  0  0
    3.8596   -1.2043    0.0000 N   0  0  0  0  0  0  0  0  0  0  0  0
    2.3645   -1.3654    0.0000 N   0  0  0  0  0  0  0  0  0  0  0  0
    1.6500   -0.1279    0.0000 N   0  0  0  0  0  0  0  0  0  0  0  0
    2.3645    1.1096    0.0000 N   0  0  0  0  0  0  0  0  0  0  0  0
    3.0790   -0.1279    0.0000 C   0  0  0  0  0  0  0  0  0  0  0  0
    3.0790   -0.9529    0.0000 C   0  0  0  0  0  0  0  0  0  0  0  0
    2.3645    0.2846    0.0000 C   0  0  0  0  0  0  0  0  0  0  0  0
    4.3411   -0.5404    0.0000 C   0  0  0  0  0  0  0  0  0  0  0  0
    1.6500   -0.9529    0.0000 C   0  0  0  0  0  0  0  0  0  0  0  0
  1  6  1  0  0  0  0
  1  9  1  0  0  0  0
  2  7  1  0  0  0  0
  2  9  2  0  0  0  0
  3  7  2  0  0  0  0
  3 10  1  0  0  0  0
  4  8  1  0  0  0  0
  4 10  2  0  0  0  0
  5  8  1  0  0  0  0
  6  7  1  0  0  0  0
  6  8  2  0  0  0  0
M  END
>  <DRUGBANK_ID>
DB00173

>  <DRUG_GROUPS>
approved; nutraceutical

>  <GENERIC_NAME>
Adenine

>  <SYNONYMS>
1H-Purin-6-amine; 6-Aminopurine; Adenin; Adeninimine; Vitamin B4

>  <BRANDS>
Leuco-4; Pedatisectine B

>  <CHEMICAL_FORMULA>
C5H5N5

>  <MOLECULAR_WEIGHT>
135.1267

>  <EXACT_MASS>
135.054495185

>  <IUPAC_NAME>
7H-purin-6-amine

>  <INCHI_IDENTIFIER>
InChI=1S/C5H5N5/c6-4-3-5(9-1-7-3)10-2-8-4/h1-2H,(H3,6,7,8,9,10)

>  <INCHI_KEY>
InChIKey=GFFGJBXGBJISGV-UHFFFAOYSA-N

>  <SMILES>
NC1=C2NC=NC2=NC=N1

>  <JCHEM_ACCEPTOR_COUNT>
4

>  <JCHEM_DONOR_COUNT>
2

>  <JCHEM_ACIDIC_PKA>
10.29

>  <JCHEM_BASIC_PKA>
5.32

>  <JCHEM_PHYSIOLOGICAL_CHARGE>
0

>  <ALOGPS_LOGP>
-0.38

>  <JCHEM_LOGP>
-0.57

>  <ALOGPS_LOGS>
-1.1

>  <JCHEM_POLARIZABILITY>
12.29

>  <JCHEM_POLAR_SURFACE_AREA>
80.48

>  <JCHEM_REFRACTIVITY>
38.22

>  <JCHEM_ROTATABLE_BOND_COUNT>
0

>  <ALOGPS_SOLUBILITY>
1.15e+01 g/l

$$$$
174
  Mrv0541 02231214292D          

  9  8  0  0  1  0            999 V2000
    5.6655   -0.0784    0.0000 O   0  0  0  0  0  0  0  0  0  0  0  0
    4.9509    1.1592    0.0000 O   0  0  0  0  0  0  0  0  0  0  0  0
    2.8075   -0.9034    0.0000 O   0  0  0  0  0  0  0  0  0  0  0  0
    4.2365   -0.9034    0.0000 N   0  0  0  0  0  0  0  0  0  0  0  0
    2.0930    0.3341    0.0000 N   0  0  0  0  0  0  0  0  0  0  0  0
    4.2365   -0.0784    0.0000 C   0  0  1  0  0  0  0  0  0  0  0  0
    3.5220    0.3341    0.0000 C   0  0  0  0  0  0  0  0  0  0  0  0
    4.9509    0.3341    0.0000 C   0  0  0  0  0  0  0  0  0  0  0  0
    2.8075   -0.0784    0.0000 C   0  0  0  0  0  0  0  0  0  0  0  0
  1  8  1  0  0  0  0
  2  8  2  0  0  0  0
  3  9  2  0  0  0  0
  6  4  1  1  0  0  0
  5  9  1  0  0  0  0
  6  7  1  0  0  0  0
  6  8  1  0  0  0  0
  7  9  1  0  0  0  0
M  END
>  <DRUGBANK_ID>
DB00174

>  <DRUG_GROUPS>
approved; nutraceutical

>  <GENERIC_NAME>
L-Asparagine

>  <SYNONYMS>
(-)-Asparagine; (S)-2,4-Diamino-4-oxobutanoic acid; (S)-Asparagine; 2-Aminosuccinamic acid; a-Aminosuccinamic acid; Asn; Asparagine; Asparagine acid; Asparamide; Aspartamic acid; Aspartic acid amide; Aspartic acid b-amide; L-2,4-Diamino-4-oxobutanoic acid; L-Aspartamine; L-b-Asparagine

>  <BRANDS>
Agedoite; Altheine; Crystal VI

>  <CHEMICAL_FORMULA>
C4H8N2O3

>  <MOLECULAR_WEIGHT>
132.1179

>  <EXACT_MASS>
132.053492132

>  <IUPAC_NAME>
(2S)-2-amino-3-carbamoylpropanoic acid

>  <INCHI_IDENTIFIER>
InChI=1S/C4H8N2O3/c5-2(4(8)9)1-3(6)7/h2H,1,5H2,(H2,6,7)(H,8,9)/t2-/m0/s1

>  <INCHI_KEY>
InChIKey=DCXYFEDJOCDNAF-REOHCLBHSA-N

>  <SMILES>
N[C@@H](CC(N)=O)C(O)=O

>  <JCHEM_ACCEPTOR_COUNT>
4

>  <JCHEM_DONOR_COUNT>
3

>  <JCHEM_ACIDIC_PKA>
2

>  <JCHEM_BASIC_PKA>
8.43

>  <JCHEM_PHYSIOLOGICAL_CHARGE>
0

>  <ALOGPS_LOGP>
-3.4

>  <JCHEM_LOGP>
-4.3

>  <ALOGPS_LOGS>
0.1

>  <JCHEM_POLARIZABILITY>
11.68

>  <JCHEM_POLAR_SURFACE_AREA>
106.41

>  <JCHEM_REFRACTIVITY>
28.35

>  <JCHEM_ROTATABLE_BOND_COUNT>
3

>  <ALOGPS_SOLUBILITY>
1.68e+02 g/l

$$$$
175
  Mrv0541 02231214292D          

 31 32  0  0  1  0            999 V2000
    3.0790    0.8556    0.0000 O   0  0  0  0  0  0  0  0  0  0  0  0
    1.6500    3.3306    0.0000 O   0  0  0  0  0  0  0  0  0  0  0  0
    4.5023   -0.8228    0.0000 O   0  0  0  0  0  0  0  0  0  0  0  0
    1.6500    0.8556    0.0000 O   0  0  0  0  0  0  0  0  0  0  0  0
    5.2025   -2.0685    0.0000 O   0  0  0  0  0  0  0  0  0  0  0  0
    7.3314   -3.3307    0.0000 O   0  0  0  0  0  0  0  0  0  0  0  0
    5.9026   -3.3142    0.0000 O   0  0  0  0  0  0  0  0  0  0  0  0
    3.7935    2.0931    0.0000 C   0  0  1  0  0  0  0  0  0  0  0  0
    4.5309    1.6521    0.0000 C   0  0  2  0  0  0  0  0  0  0  0  0
    3.0790    1.6806    0.0000 C   0  0  2  0  0  0  0  0  0  0  0  0
    5.2785    2.0760    0.0000 C   0  0  2  0  0  0  0  0  0  0  0  0
    4.5214    0.8271    0.0000 C   0  0  0  0  0  0  0  0  0  0  0  0
    3.7935    2.9181    0.0000 C   0  0  0  0  0  0  0  0  0  0  0  0
    2.3645    2.0931    0.0000 C   0  0  0  0  0  0  0  0  0  0  0  0
    2.3645    2.9181    0.0000 C   0  0  1  0  0  0  0  0  0  0  0  0
    5.2785    2.9354    0.0000 C   0  0  0  0  0  0  0  0  0  0  0  0
    5.2310    0.4064    0.0000 C   0  0  0  0  0  0  0  0  0  0  0  0
    3.0790    3.3306    0.0000 C   0  0  0  0  0  0  0  0  0  0  0  0
    4.5309    3.3593    0.0000 C   0  0  0  0  0  0  0  0  0  0  0  0
    5.9913    1.6607    0.0000 C   0  0  0  0  0  0  0  0  0  0  0  0
    5.2215   -0.4186    0.0000 C   0  0  2  0  0  0  0  0  0  0  0  0
    5.9312   -0.8394    0.0000 C   0  0  0  0  0  0  0  0  0  0  0  0
    2.3645    0.4431    0.0000 C   0  0  0  0  0  0  0  0  0  0  0  0
    5.9216   -1.6643    0.0000 C   0  0  2  0  0  0  0  0  0  0  0  0
    2.3645   -0.3819    0.0000 C   0  0  2  0  0  0  0  0  0  0  0  0
    6.6313   -2.0850    0.0000 C   0  0  0  0  0  0  0  0  0  0  0  0
    1.6500   -0.7944    0.0000 C   0  0  0  0  0  0  0  0  0  0  0  0
    3.0790   -0.7944    0.0000 C   0  0  0  0  0  0  0  0  0  0  0  0
    1.6500   -1.6194    0.0000 C   0  0  0  0  0  0  0  0  0  0  0  0
    6.6217   -2.9100    0.0000 C   0  0  0  0  0  0  0  0  0  0  0  0
    3.7883    1.4332    0.0000 H   0  0  0  0  0  0  0  0  0  0  0  0
 10  1  1  1  0  0  0
  1 23  1  0  0  0  0
 15  2  1  6  0  0  0
 21  3  1  6  0  0  0
  4 23  2  0  0  0  0
 24  5  1  6  0  0  0
  6 30  1  0  0  0  0
  7 30  2  0  0  0  0
  8  9  1  0  0  0  0
  8 10  1  0  0  0  0
  8 13  1  0  0  0  0
  8 31  1  6  0  0  0
  9 11  1  0  0  0  0
  9 12  1  6  0  0  0
 10 14  1  0  0  0  0
 11 16  1  0  0  0  0
 11 20  1  6  0  0  0
 12 17  1  0  0  0  0
 13 18  2  0  0  0  0
 13 19  1  0  0  0  0
 14 15  1  0  0  0  0
 15 18  1  0  0  0  0
 16 19  2  0  0  0  0
 17 21  1  0  0  0  0
 21 22  1  0  0  0  0
 22 24  1  0  0  0  0
 23 25  1  0  0  0  0
 24 26  1  0  0  0  0
 25 27  1  0  0  0  0
 25 28  1  1  0  0  0
 26 30  1  0  0  0  0
 27 29  1  0  0  0  0
M  END
>  <DRUGBANK_ID>
DB00175

>  <DRUG_GROUPS>
approved

>  <GENERIC_NAME>
Pravastatin

>  <SYNONYMS>
Pravastatin Sodium; Pravastatina [Spanish]; Pravastatine [French]; Pravastatinum [Latin]

>  <BRANDS>
Elisor; Lipostat; Mevalotin; Mevinolin; Oliprevin; Pravachol; Pravaselect; Selectin; Selipran; Vasten

>  <CHEMICAL_FORMULA>
C23H36O7

>  <MOLECULAR_WEIGHT>
424.5277

>  <EXACT_MASS>
424.246103506

>  <IUPAC_NAME>
(3R,5R)-7-[(1S,2S,6S,8S,8aR)-6-hydroxy-2-methyl-8-{[(2S)-2-methylbutanoyl]oxy}-1,2,6,7,8,8a-hexahydronaphthalen-1-yl]-3,5-dihydroxyheptanoic acid

>  <INCHI_IDENTIFIER>
InChI=1S/C23H36O7/c1-4-13(2)23(29)30-20-11-17(25)9-15-6-5-14(3)19(22(15)20)8-7-16(24)10-18(26)12-21(27)28/h5-6,9,13-14,16-20,22,24-26H,4,7-8,10-12H2,1-3H3,(H,27,28)/t13-,14-,16+,17+,18+,19-,20-,22-/m0/s1

>  <INCHI_KEY>
InChIKey=TUZYXOIXSAXUGO-PZAWKZKUSA-N

>  <SMILES>
[H][C@]12[C@H](C[C@H](O)C=C1C=C[C@H](C)[C@@H]2CC[C@@H](O)C[C@@H](O)CC(O)=O)OC(=O)[C@@H](C)CC

>  <JCHEM_ACCEPTOR_COUNT>
6

>  <JCHEM_DONOR_COUNT>
4

>  <JCHEM_ACIDIC_PKA>
4.21

>  <JCHEM_BASIC_PKA>
-2.7

>  <JCHEM_PHYSIOLOGICAL_CHARGE>
-1

>  <ALOGPS_LOGP>
2.23

>  <JCHEM_LOGP>
1.65

>  <ALOGPS_LOGS>
-3.2

>  <JCHEM_POLARIZABILITY>
46.56

>  <JCHEM_POLAR_SURFACE_AREA>
124.29

>  <JCHEM_REFRACTIVITY>
113.6

>  <JCHEM_ROTATABLE_BOND_COUNT>
11

>  <ALOGPS_SOLUBILITY>
2.42e-01 g/l

$$$$
176
  Mrv0541 02231214292D          

 22 22  0  0  0  0            999 V2000
    3.4115    3.0938    0.0000 F   0  0  0  0  0  0  0  0  0  0  0  0
    5.0615    3.0938    0.0000 F   0  0  0  0  0  0  0  0  0  0  0  0
    4.2365    3.9188    0.0000 F   0  0  0  0  0  0  0  0  0  0  0  0
    6.3799   -3.0938    0.0000 O   0  0  0  0  0  0  0  0  0  0  0  0
    3.5220   -1.4438    0.0000 O   0  0  0  0  0  0  0  0  0  0  0  0
    3.5220   -0.6188    0.0000 N   0  0  0  0  0  0  0  0  0  0  0  0
    2.0930   -3.0938    0.0000 N   0  0  0  0  0  0  0  0  0  0  0  0
    4.9509   -1.4438    0.0000 C   0  0  0  0  0  0  0  0  0  0  0  0
    4.9509   -0.6188    0.0000 C   0  0  0  0  0  0  0  0  0  0  0  0
    5.6655   -1.8563    0.0000 C   0  0  0  0  0  0  0  0  0  0  0  0
    4.2365   -0.2063    0.0000 C   0  0  0  0  0  0  0  0  0  0  0  0
    4.2365    0.6188    0.0000 C   0  0  0  0  0  0  0  0  0  0  0  0
    5.6655   -2.6813    0.0000 C   0  0  0  0  0  0  0  0  0  0  0  0
    3.5220    1.0313    0.0000 C   0  0  0  0  0  0  0  0  0  0  0  0
    4.9509    1.0313    0.0000 C   0  0  0  0  0  0  0  0  0  0  0  0
    4.2365    2.2688    0.0000 C   0  0  0  0  0  0  0  0  0  0  0  0
    3.5220    1.8563    0.0000 C   0  0  0  0  0  0  0  0  0  0  0  0
    4.9509    1.8563    0.0000 C   0  0  0  0  0  0  0  0  0  0  0  0
    4.2365    3.0938    0.0000 C   0  0  0  0  0  0  0  0  0  0  0  0
    2.8075   -1.8563    0.0000 C   0  0  0  0  0  0  0  0  0  0  0  0
    6.3799   -3.9188    0.0000 C   0  0  0  0  0  0  0  0  0  0  0  0
    2.8075   -2.6813    0.0000 C   0  0  0  0  0  0  0  0  0  0  0  0
  1 19  1  0  0  0  0
  2 19  1  0  0  0  0
  3 19  1  0  0  0  0
  4 13  1  0  0  0  0
  4 21  1  0  0  0  0
  5  6  1  0  0  0  0
  5 20  1  0  0  0  0
  6 11  2  3  0  0  0
  7 22  1  0  0  0  0
  8  9  1  0  0  0  0
  8 10  1  0  0  0  0
  9 11  1  0  0  0  0
 10 13  1  0  0  0  0
 11 12  1  0  0  0  0
 12 14  2  0  0  0  0
 12 15  1  0  0  0  0
 14 17  1  0  0  0  0
 15 18  2  0  0  0  0
 16 17  2  0  0  0  0
 16 18  1  0  0  0  0
 16 19  1  0  0  0  0
 20 22  1  0  0  0  0
M  END
>  <DRUGBANK_ID>
DB00176

>  <DRUG_GROUPS>
approved; investigational

>  <GENERIC_NAME>
Fluvoxamine

>  <SYNONYMS>
Fluvoxamina [INN-Spanish]; Fluvoxamine maleate; fluvoxamine-CR; Fluvoxaminum [INN-Latin]

>  <BRANDS>
Dumirox; Dumyrox; Faverin; Fevarin; Floxyfral; Luvox; Maveral

>  <CHEMICAL_FORMULA>
C15H21F3N2O2

>  <MOLECULAR_WEIGHT>
318.3346

>  <EXACT_MASS>
318.155512541

>  <IUPAC_NAME>
(2-aminoethoxy)({5-methoxy-1-[4-(trifluoromethyl)phenyl]pentylidene})amine

>  <INCHI_IDENTIFIER>
InChI=1S/C15H21F3N2O2/c1-21-10-3-2-4-14(20-22-11-9-19)12-5-7-13(8-6-12)15(16,17)18/h5-8H,2-4,9-11,19H2,1H3/b20-14+

>  <INCHI_KEY>
InChIKey=CJOFXWAVKWHTFT-XSFVSMFZSA-N

>  <SMILES>
COCCCCC(=NOCCN)C1=CC=C(C=C1)C(F)(F)F

>  <JCHEM_ACCEPTOR_COUNT>
4

>  <JCHEM_DONOR_COUNT>
1

>  <JCHEM_BASIC_PKA>
9.16

>  <JCHEM_PHYSIOLOGICAL_CHARGE>
1

>  <ALOGPS_LOGP>
2.89

>  <JCHEM_LOGP>
2.8

>  <ALOGPS_LOGS>
-4.6

>  <JCHEM_POLARIZABILITY>
32.44

>  <JCHEM_POLAR_SURFACE_AREA>
56.84

>  <JCHEM_REFRACTIVITY>
79.2

>  <JCHEM_ROTATABLE_BOND_COUNT>
10

>  <ALOGPS_SOLUBILITY>
7.34e-03 g/l

$$$$
177
  Mrv0541 02231214292D          

 32 34  0  0  1  0            999 V2000
    2.0930    1.2209    0.0000 O   0  0  0  0  0  0  0  0  0  0  0  0
    4.9509   -0.4292    0.0000 O   0  0  0  0  0  0  0  0  0  0  0  0
    2.8075   -0.0167    0.0000 O   0  0  0  0  0  0  0  0  0  0  0  0
    4.2365    0.8084    0.0000 N   0  0  0  0  0  0  0  0  0  0  0  0
    7.8559    1.2933    0.0000 N   0  0  0  0  0  0  0  0  0  0  0  0
    9.1909    1.2933    0.0000 N   0  0  0  0  0  0  0  0  0  0  0  0
    8.1109    2.0779    0.0000 N   0  0  0  0  0  0  0  0  0  0  0  0
    8.9359    2.0779    0.0000 N   0  0  0  0  0  0  0  0  0  0  0  0
    3.5220    1.2209    0.0000 C   0  0  1  0  0  0  0  0  0  0  0  0
    3.5220    2.0459    0.0000 C   0  0  0  0  0  0  0  0  0  0  0  0
    4.9509    1.2209    0.0000 C   0  0  0  0  0  0  0  0  0  0  0  0
    4.2365   -0.0167    0.0000 C   0  0  0  0  0  0  0  0  0  0  0  0
    2.8075    2.4584    0.0000 C   0  0  0  0  0  0  0  0  0  0  0  0
    4.2365    2.4584    0.0000 C   0  0  0  0  0  0  0  0  0  0  0  0
    3.5220   -0.4292    0.0000 C   0  0  0  0  0  0  0  0  0  0  0  0
    2.8075    0.8084    0.0000 C   0  0  0  0  0  0  0  0  0  0  0  0
    5.6655    0.8084    0.0000 C   0  0  0  0  0  0  0  0  0  0  0  0
    3.5220   -1.2542    0.0000 C   0  0  0  0  0  0  0  0  0  0  0  0
    2.8075   -1.6667    0.0000 C   0  0  0  0  0  0  0  0  0  0  0  0
    6.3799    1.2209    0.0000 C   0  0  0  0  0  0  0  0  0  0  0  0
    5.6655   -0.0167    0.0000 C   0  0  0  0  0  0  0  0  0  0  0  0
    7.0944   -0.0167    0.0000 C   0  0  0  0  0  0  0  0  0  0  0  0
    7.0944    0.8084    0.0000 C   0  0  0  0  0  0  0  0  0  0  0  0
    6.3799   -0.4292    0.0000 C   0  0  0  0  0  0  0  0  0  0  0  0
    2.8075   -2.4917    0.0000 C   0  0  0  0  0  0  0  0  0  0  0  0
    7.8089   -0.4292    0.0000 C   0  0  0  0  0  0  0  0  0  0  0  0
    8.5234   -0.0167    0.0000 C   0  0  0  0  0  0  0  0  0  0  0  0
    7.8089   -1.2542    0.0000 C   0  0  0  0  0  0  0  0  0  0  0  0
    9.2379   -0.4292    0.0000 C   0  0  0  0  0  0  0  0  0  0  0  0
    8.5234   -1.6667    0.0000 C   0  0  0  0  0  0  0  0  0  0  0  0
    8.5234    0.8084    0.0000 C   0  0  0  0  0  0  0  0  0  0  0  0
    9.2379   -1.2542    0.0000 C   0  0  0  0  0  0  0  0  0  0  0  0
  1 16  1  0  0  0  0
  2 12  2  0  0  0  0
  3 16  2  0  0  0  0
  9  4  1  6  0  0  0
  4 11  1  0  0  0  0
  4 12  1  0  0  0  0
  5  7  1  0  0  0  0
  5 31  2  0  0  0  0
  6  8  2  0  0  0  0
  6 31  1  0  0  0  0
  7  8  1  0  0  0  0
  9 10  1  0  0  0  0
  9 16  1  0  0  0  0
 10 13  1  0  0  0  0
 10 14  1  0  0  0  0
 11 17  1  0  0  0  0
 12 15  1  0  0  0  0
 15 18  1  0  0  0  0
 17 20  2  0  0  0  0
 17 21  1  0  0  0  0
 18 19  1  0  0  0  0
 19 25  1  0  0  0  0
 20 23  1  0  0  0  0
 21 24  2  0  0  0  0
 22 23  2  0  0  0  0
 22 24  1  0  0  0  0
 22 26  1  0  0  0  0
 26 27  1  0  0  0  0
 26 28  2  0  0  0  0
 27 29  2  0  0  0  0
 27 31  1  0  0  0  0
 28 30  1  0  0  0  0
 29 32  1  0  0  0  0
 30 32  2  0  0  0  0
M  END
>  <DRUGBANK_ID>
DB00177

>  <DRUG_GROUPS>
approved; investigational

>  <GENERIC_NAME>
Valsartan

>  <BRANDS>
Diovan; Valsarran

>  <CHEMICAL_FORMULA>
C24H29N5O3

>  <MOLECULAR_WEIGHT>
435.5188

>  <EXACT_MASS>
435.227039819

>  <IUPAC_NAME>
(2S)-3-methyl-2-[N-({4-[2-(2H-1,2,3,4-tetrazol-5-yl)phenyl]phenyl}methyl)pentanamido]butanoic acid

>  <INCHI_IDENTIFIER>
InChI=1S/C24H29N5O3/c1-4-5-10-21(30)29(22(16(2)3)24(31)32)15-17-11-13-18(14-12-17)19-8-6-7-9-20(19)23-25-27-28-26-23/h6-9,11-14,16,22H,4-5,10,15H2,1-3H3,(H,31,32)(H,25,26,27,28)/t22-/m0/s1

>  <INCHI_KEY>
InChIKey=ACWBQPMHZXGDFX-QFIPXVFZSA-N

>  <SMILES>
CCCCC(=O)N(CC1=CC=C(C=C1)C1=CC=CC=C1C1=NNN=N1)[C@@H](C(C)C)C(O)=O

>  <JCHEM_ACCEPTOR_COUNT>
6

>  <JCHEM_DONOR_COUNT>
2

>  <JCHEM_ACIDIC_PKA>
4.37

>  <JCHEM_BASIC_PKA>
-0.11

>  <JCHEM_PHYSIOLOGICAL_CHARGE>
-1

>  <ALOGPS_LOGP>
3.68

>  <JCHEM_LOGP>
5.27

>  <ALOGPS_LOGS>
-4.3

>  <JCHEM_POLARIZABILITY>
47.27

>  <JCHEM_POLAR_SURFACE_AREA>
112.07

>  <JCHEM_REFRACTIVITY>
134.77

>  <JCHEM_ROTATABLE_BOND_COUNT>
10

>  <ALOGPS_SOLUBILITY>
2.34e-02 g/l

$$$$
178
  Mrv0541 02231214292D          

 32 34  0  0  1  0            999 V2000
    2.8221   -1.1484    0.0000 O   0  0  0  0  0  0  0  0  0  0  0  0
    2.1616   -3.4866    0.0000 O   0  0  0  0  0  0  0  0  0  0  0  0
    2.1616   -2.0576    0.0000 O   0  0  0  0  0  0  0  0  0  0  0  0
    4.7754    2.0888    0.0000 O   0  0  0  0  0  0  0  0  0  0  0  0
    3.4163    1.6472    0.0000 O   0  0  0  0  0  0  0  0  0  0  0  0
    3.8841   -2.1046    0.0000 N   0  0  0  0  0  0  0  0  0  0  0  0
    3.9263    0.0779    0.0000 N   0  0  0  0  0  0  0  0  0  0  0  0
    4.6688   -3.1846    0.0000 C   0  0  2  0  0  0  0  0  0  0  0  0
    4.6688   -2.3595    0.0000 C   0  0  2  0  0  0  0  0  0  0  0  0
    3.8841   -3.4395    0.0000 C   0  0  0  0  0  0  0  0  0  0  0  0
    5.4495   -3.4360    0.0000 C   0  0  0  0  0  0  0  0  0  0  0  0
    5.4495   -2.1082    0.0000 C   0  0  0  0  0  0  0  0  0  0  0  0
    3.3992   -2.7721    0.0000 C   0  0  1  0  0  0  0  0  0  0  0  0
    5.9310   -2.7721    0.0000 C   0  0  0  0  0  0  0  0  0  0  0  0
    3.6292   -1.3199    0.0000 C   0  0  0  0  0  0  0  0  0  0  0  0
    2.5741   -2.7721    0.0000 C   0  0  0  0  0  0  0  0  0  0  0  0
    4.1812   -0.7068    0.0000 C   0  0  2  0  0  0  0  0  0  0  0  0
    4.9882   -0.8783    0.0000 C   0  0  0  0  0  0  0  0  0  0  0  0
    4.4783    0.6910    0.0000 C   0  0  1  0  0  0  0  0  0  0  0  0
    5.2854    0.5194    0.0000 C   0  0  0  0  0  0  0  0  0  0  0  0
    4.2234    1.4757    0.0000 C   0  0  0  0  0  0  0  0  0  0  0  0
    5.8374    1.1326    0.0000 C   0  0  0  0  0  0  0  0  0  0  0  0
    6.6444    0.9610    0.0000 C   0  0  0  0  0  0  0  0  0  0  0  0
    6.8994    0.1764    0.0000 C   0  0  0  0  0  0  0  0  0  0  0  0
    7.1965    1.5742    0.0000 C   0  0  0  0  0  0  0  0  0  0  0  0
    4.5205    2.8735    0.0000 C   0  0  0  0  0  0  0  0  0  0  0  0
    7.7064    0.0049    0.0000 C   0  0  0  0  0  0  0  0  0  0  0  0
    8.0035    1.4027    0.0000 C   0  0  0  0  0  0  0  0  0  0  0  0
    5.0725    3.4866    0.0000 C   0  0  0  0  0  0  0  0  0  0  0  0
    8.2584    0.6180    0.0000 C   0  0  0  0  0  0  0  0  0  0  0  0
    4.6697   -3.8446    0.0000 H   0  0  0  0  0  0  0  0  0  0  0  0
    4.6697   -1.6995    0.0000 H   0  0  0  0  0  0  0  0  0  0  0  0
  1 15  2  0  0  0  0
  2 16  1  0  0  0  0
  3 16  2  0  0  0  0
  4 21  1  0  0  0  0
  4 26  1  0  0  0  0
  5 21  2  0  0  0  0
  6  9  1  0  0  0  0
  6 13  1  0  0  0  0
  6 15  1  0  0  0  0
 17  7  1  1  0  0  0
 19  7  1  6  0  0  0
  8  9  1  0  0  0  0
  8 10  1  0  0  0  0
  8 11  1  0  0  0  0
  8 31  1  6  0  0  0
  9 12  1  0  0  0  0
  9 32  1  6  0  0  0
 10 13  1  0  0  0  0
 11 14  1  0  0  0  0
 12 14  1  0  0  0  0
 13 16  1  1  0  0  0
 15 17  1  0  0  0  0
 17 18  1  0  0  0  0
 19 20  1  0  0  0  0
 19 21  1  0  0  0  0
 20 22  1  0  0  0  0
 22 23  1  0  0  0  0
 23 24  2  0  0  0  0
 23 25  1  0  0  0  0
 24 27  1  0  0  0  0
 25 28  2  0  0  0  0
 26 29  1  0  0  0  0
 27 30  2  0  0  0  0
 28 30  1  0  0  0  0
M  END
>  <DRUGBANK_ID>
DB00178

>  <DRUG_GROUPS>
approved

>  <GENERIC_NAME>
Ramipril

>  <SYNONYMS>
Ramiprilum [Latin]

>  <BRANDS>
Acovil; Altace; Carasel; Cardace; Delix; Hypren; Hytren; Lostapres; Pramace; Quark; Ramace; Triatec; Tritace; Vesdil

>  <CHEMICAL_FORMULA>
C23H32N2O5

>  <MOLECULAR_WEIGHT>
416.5106

>  <EXACT_MASS>
416.231122144

>  <IUPAC_NAME>
(2S,3aS,6aS)-1-[(2S)-2-{[(2S)-1-ethoxy-1-oxo-4-phenylbutan-2-yl]amino}propanoyl]-octahydrocyclopenta[b]pyrrole-2-carboxylic acid

>  <INCHI_IDENTIFIER>
InChI=1S/C23H32N2O5/c1-3-30-23(29)18(13-12-16-8-5-4-6-9-16)24-15(2)21(26)25-19-11-7-10-17(19)14-20(25)22(27)28/h4-6,8-9,15,17-20,24H,3,7,10-14H2,1-2H3,(H,27,28)/t15-,17-,18-,19-,20-/m0/s1

>  <INCHI_KEY>
InChIKey=HDACQVRGBOVJII-JBDAPHQKSA-N

>  <SMILES>
[H][C@@]12CCC[C@]1([H])N([C@@H](C2)C(O)=O)C(=O)[C@H](C)N[C@@H](CCC1=CC=CC=C1)C(=O)OCC

>  <JCHEM_ACCEPTOR_COUNT>
5

>  <JCHEM_DONOR_COUNT>
2

>  <JCHEM_ACIDIC_PKA>
3.75

>  <JCHEM_BASIC_PKA>
5.2

>  <JCHEM_PHYSIOLOGICAL_CHARGE>
-1

>  <ALOGPS_LOGP>
0.92

>  <JCHEM_LOGP>
1.47

>  <ALOGPS_LOGS>
-4

>  <JCHEM_POLARIZABILITY>
44.78

>  <JCHEM_POLAR_SURFACE_AREA>
95.94

>  <JCHEM_REFRACTIVITY>
111.19

>  <JCHEM_ROTATABLE_BOND_COUNT>
10

>  <ALOGPS_SOLUBILITY>
3.90e-02 g/l

$$$$
179
  Mrv0541 02231214302D          

 22 23  0  0  1  0            999 V2000
    7.0944   -3.5063    0.0000 O   0  0  0  0  0  0  0  0  0  0  0  0
    3.5220    3.5063    0.0000 O   0  0  0  0  0  0  0  0  0  0  0  0
    8.5234   -2.6813    0.0000 O   0  0  0  0  0  0  0  0  0  0  0  0
    2.0930    2.6813    0.0000 O   0  0  0  0  0  0  0  0  0  0  0  0
    5.6655   -0.2063    0.0000 C   0  0  2  0  0  0  0  0  0  0  0  0
    4.9509    0.2063    0.0000 C   0  0  1  0  0  0  0  0  0  0  0  0
    5.6655   -1.0313    0.0000 C   0  0  0  0  0  0  0  0  0  0  0  0
    4.9509    1.0313    0.0000 C   0  0  0  0  0  0  0  0  0  0  0  0
    6.3799    0.2063    0.0000 C   0  0  0  0  0  0  0  0  0  0  0  0
    4.2365   -0.2063    0.0000 C   0  0  0  0  0  0  0  0  0  0  0  0
    6.3799   -1.4438    0.0000 C   0  0  0  0  0  0  0  0  0  0  0  0
    4.2365    1.4438    0.0000 C   0  0  0  0  0  0  0  0  0  0  0  0
    6.3799   -2.2688    0.0000 C   0  0  0  0  0  0  0  0  0  0  0  0
    4.2365    2.2688    0.0000 C   0  0  0  0  0  0  0  0  0  0  0  0
    7.0944   -1.0313    0.0000 C   0  0  0  0  0  0  0  0  0  0  0  0
    3.5220    1.0313    0.0000 C   0  0  0  0  0  0  0  0  0  0  0  0
    7.0944   -2.6813    0.0000 C   0  0  0  0  0  0  0  0  0  0  0  0
    3.5220    2.6813    0.0000 C   0  0  0  0  0  0  0  0  0  0  0  0
    7.8089   -1.4438    0.0000 C   0  0  0  0  0  0  0  0  0  0  0  0
    2.8075    1.4438    0.0000 C   0  0  0  0  0  0  0  0  0  0  0  0
    7.8089   -2.2688    0.0000 C   0  0  0  0  0  0  0  0  0  0  0  0
    2.8075    2.2688    0.0000 C   0  0  0  0  0  0  0  0  0  0  0  0
  1 17  1  0  0  0  0
  2 18  1  0  0  0  0
  3 21  1  0  0  0  0
  4 22  1  0  0  0  0
  5  6  1  0  0  0  0
  5  7  1  0  0  0  0
  5  9  1  1  0  0  0
  6  8  1  0  0  0  0
  6 10  1  6  0  0  0
  7 11  1  0  0  0  0
  8 12  1  0  0  0  0
 11 13  2  0  0  0  0
 11 15  1  0  0  0  0
 12 14  2  0  0  0  0
 12 16  1  0  0  0  0
 13 17  1  0  0  0  0
 14 18  1  0  0  0  0
 15 19  2  0  0  0  0
 16 20  2  0  0  0  0
 17 21  2  0  0  0  0
 18 22  2  0  0  0  0
 19 21  1  0  0  0  0
 20 22  1  0  0  0  0
M  END
>  <DRUGBANK_ID>
DB00179

>  <DRUG_GROUPS>
approved

>  <GENERIC_NAME>
Masoprocol

>  <SYNONYMS>
Dihydronorguaiaretic acid; Masoprocolum [INN-Latin]; meso-NDGA; meso-Nordihydroguaiaretic acid; NDGA; Nordihydroguaiaretic acid; Nordihydroguairaretic acid

>  <BRANDS>
Actinex

>  <CHEMICAL_FORMULA>
C18H22O4

>  <MOLECULAR_WEIGHT>
302.3649

>  <EXACT_MASS>
302.151809192

>  <IUPAC_NAME>
4-[(2S,3R)-3-[(3,4-dihydroxyphenyl)methyl]-2-methylbutyl]benzene-1,2-diol

>  <INCHI_IDENTIFIER>
InChI=1S/C18H22O4/c1-11(7-13-3-5-15(19)17(21)9-13)12(2)8-14-4-6-16(20)18(22)10-14/h3-6,9-12,19-22H,7-8H2,1-2H3/t11-,12+

>  <INCHI_KEY>
InChIKey=HCZKYJDFEPMADG-TXEJJXNPSA-N

>  <SMILES>
C[C@@H](CC1=CC(O)=C(O)C=C1)[C@H](C)CC1=CC(O)=C(O)C=C1

>  <JCHEM_ACCEPTOR_COUNT>
4

>  <JCHEM_DONOR_COUNT>
4

>  <JCHEM_ACIDIC_PKA>
9.21

>  <JCHEM_BASIC_PKA>
-6.3

>  <JCHEM_PHYSIOLOGICAL_CHARGE>
0

>  <ALOGPS_LOGP>
3.44

>  <JCHEM_LOGP>
4.76

>  <ALOGPS_LOGS>
-4.3

>  <JCHEM_POLARIZABILITY>
33.63

>  <JCHEM_POLAR_SURFACE_AREA>
80.92

>  <JCHEM_REFRACTIVITY>
86.62

>  <JCHEM_ROTATABLE_BOND_COUNT>
5

>  <ALOGPS_SOLUBILITY>
1.36e-02 g/l

$$$$
82153
  Mrv0541 02231214302D          

 35 39  0  0  1  0            999 V2000
    2.4287   -0.6672    0.0000 F   0  0  0  0  0  0  0  0  0  0  0  0
    7.4742   -0.8731    0.0000 O   0  0  0  0  0  0  0  0  0  0  0  0
    6.9362   -2.0786    0.0000 O   0  0  0  0  0  0  0  0  0  0  0  0
    5.3411    1.8277    0.0000 O   0  0  0  0  0  0  0  0  0  0  0  0
    7.2460    0.5198    0.0000 O   0  0  0  0  0  0  0  0  0  0  0  0
    8.7528   -0.1526    0.0000 O   0  0  0  0  0  0  0  0  0  0  0  0
    1.6500    2.3594    0.0000 O   0  0  0  0  0  0  0  0  0  0  0  0
    6.0556   -0.2347    0.0000 C   0  0  1  0  0  0  0  0  0  0  0  0
    5.3411   -0.6472    0.0000 C   0  0  2  0  0  0  0  0  0  0  0  0
    4.6266   -0.2347    0.0000 C   0  0  1  0  0  0  0  0  0  0  0  0
    6.6637   -0.7851    0.0000 C   0  0  1  0  0  0  0  0  0  0  0  0
    4.6266    0.5903    0.0000 C   0  0  2  0  0  0  0  0  0  0  0  0
    6.3294   -1.5340    0.0000 C   0  0  1  0  0  0  0  0  0  0  0  0
    5.5137   -1.4491    0.0000 C   0  0  0  0  0  0  0  0  0  0  0  0
    6.0556    0.5903    0.0000 C   0  0  0  0  0  0  0  0  0  0  0  0
    5.3411    1.0027    0.0000 C   0  0  2  0  0  0  0  0  0  0  0  0
    3.8891    1.0314    0.0000 C   0  0  1  0  0  0  0  0  0  0  0  0
    3.8891   -0.6759    0.0000 C   0  0  0  0  0  0  0  0  0  0  0  0
    6.7701    0.1778    0.0000 C   0  0  0  0  0  0  0  0  0  0  0  0
    3.1416   -0.2520    0.0000 C   0  0  1  0  0  0  0  0  0  0  0  0
    7.6423   -1.6709    0.0000 C   0  0  0  0  0  0  0  0  0  0  0  0
    7.3315   -0.3007    0.0000 C   0  0  0  0  0  0  0  0  0  0  0  0
    3.1416    0.6075    0.0000 C   0  0  0  0  0  0  0  0  0  0  0  0
    4.6067    1.4383    0.0000 C   0  0  0  0  0  0  0  0  0  0  0  0
    3.9098    1.9263    0.0000 C   0  0  0  0  0  0  0  0  0  0  0  0
    8.0849   -0.6370    0.0000 C   0  0  0  0  0  0  0  0  0  0  0  0
    8.0542   -2.3857    0.0000 C   0  0  0  0  0  0  0  0  0  0  0  0
    8.4494   -1.5000    0.0000 C   0  0  0  0  0  0  0  0  0  0  0  0
    2.3629    1.0490    0.0000 C   0  0  0  0  0  0  0  0  0  0  0  0
    3.1416    2.3857    0.0000 C   0  0  0  0  0  0  0  0  0  0  0  0
    2.3629    1.9442    0.0000 C   0  0  0  0  0  0  0  0  0  0  0  0
    4.7743   -1.0602    0.0000 H   0  0  0  0  0  0  0  0  0  0  0  0
    4.6320   -0.9360    0.0000 H   0  0  0  0  0  0  0  0  0  0  0  0
    5.2339    0.2397    0.0000 H   0  0  0  0  0  0  0  0  0  0  0  0
    6.0450   -2.1751    0.0000 H   0  0  0  0  0  0  0  0  0  0  0  0
 20  1  1  6  0  0  0
  2 11  1  0  0  0  0
  2 21  1  0  0  0  0
  3 13  1  0  0  0  0
  3 21  1  0  0  0  0
 16  4  1  1  0  0  0
  5 22  2  0  0  0  0
  6 26  1  0  0  0  0
  7 31  2  0  0  0  0
  8  9  1  0  0  0  0
  8 11  1  0  0  0  0
  8 15  1  0  0  0  0
  8 19  1  1  0  0  0
  9 10  1  0  0  0  0
  9 14  1  0  0  0  0
  9 32  1  6  0  0  0
 10 12  1  0  0  0  0
 10 18  1  0  0  0  0
 10 33  1  1  0  0  0
 11 13  1  0  0  0  0
 11 22  1  1  0  0  0
 12 16  1  0  0  0  0
 12 17  1  0  0  0  0
 12 34  1  6  0  0  0
 13 14  1  0  0  0  0
 13 35  1  1  0  0  0
 15 16  1  0  0  0  0
 17 23  1  0  0  0  0
 17 24  1  1  0  0  0
 17 25  1  0  0  0  0
 18 20  1  0  0  0  0
 20 23  1  0  0  0  0
 21 27  1  0  0  0  0
 21 28  1  0  0  0  0
 22 26  1  0  0  0  0
 23 29  2  0  0  0  0
 25 30  2  0  0  0  0
 29 31  1  0  0  0  0
 30 31  1  0  0  0  0
M  END
>  <DRUGBANK_ID>
DB00180

>  <DRUG_GROUPS>
approved; investigational

>  <GENERIC_NAME>
Flunisolide

>  <SYNONYMS>
Flunisolide [anhydrous]

>  <BRANDS>
Aerobid; Bronalide; Lunis; Nasalide; Nasarel; Rhinalar; Synaclyn; Syntaris

>  <CHEMICAL_FORMULA>
C24H31FO6

>  <MOLECULAR_WEIGHT>
434.4977

>  <EXACT_MASS>
434.210466929

>  <IUPAC_NAME>
(1S,2S,4R,8S,9S,11S,12S,13R,19S)-19-fluoro-11-hydroxy-8-(2-hydroxyacetyl)-6,6,9,13-tetramethyl-5,7-dioxapentacyclo[10.8.0.0^{2,9}.0^{4,8}.0^{13,18}]icosa-14,17-dien-16-one

>  <INCHI_IDENTIFIER>
InChI=1S/C24H31FO6/c1-21(2)30-19-9-14-13-8-16(25)15-7-12(27)5-6-22(15,3)20(13)17(28)10-23(14,4)24(19,31-21)18(29)11-26/h5-7,13-14,16-17,19-20,26,28H,8-11H2,1-4H3/t13-,14-,16-,17-,19+,20+,22-,23-,24+/m0/s1

>  <INCHI_KEY>
InChIKey=XSFJVAJPIHIPKU-XWCQMRHXSA-N

>  <SMILES>
[H][C@@]12C[C@@]3([H])[C@]4([H])C[C@H](F)C5=CC(=O)C=C[C@]5(C)[C@@]4([H])[C@@H](O)C[C@]3(C)[C@@]1(OC(C)(C)O2)C(=O)CO

>  <JCHEM_ACCEPTOR_COUNT>
6

>  <JCHEM_DONOR_COUNT>
2

>  <JCHEM_ACIDIC_PKA>
13.73

>  <JCHEM_BASIC_PKA>
-2.9

>  <JCHEM_PHYSIOLOGICAL_CHARGE>
0

>  <ALOGPS_LOGP>
2.2

>  <JCHEM_LOGP>
1.56

>  <ALOGPS_LOGS>
-4.1

>  <JCHEM_POLARIZABILITY>
44.88

>  <JCHEM_POLAR_SURFACE_AREA>
93.06

>  <JCHEM_REFRACTIVITY>
111.89

>  <JCHEM_ROTATABLE_BOND_COUNT>
2

>  <ALOGPS_SOLUBILITY>
3.74e-02 g/l

$$$$
181
  Mrv0541 02231214302D          

 14 14  0  0  1  0            999 V2000
    3.5220   -2.7308    0.0000 Cl  0  0  0  0  0  0  0  0  0  0  0  0
    4.9509    2.2193    0.0000 O   0  0  0  0  0  0  0  0  0  0  0  0
    3.5220    2.2193    0.0000 O   0  0  0  0  0  0  0  0  0  0  0  0
    2.0930    0.5693    0.0000 N   0  0  0  0  0  0  0  0  0  0  0  0
    3.5220    0.5693    0.0000 C   0  0  0  0  0  0  0  0  0  0  0  0
    3.5220   -0.2558    0.0000 C   0  0  0  0  0  0  0  0  0  0  0  0
    4.2365    0.9818    0.0000 C   0  0  0  0  0  0  0  0  0  0  0  0
    2.8075    0.9818    0.0000 C   0  0  0  0  0  0  0  0  0  0  0  0
    4.2365   -0.6683    0.0000 C   0  0  0  0  0  0  0  0  0  0  0  0
    2.8075   -0.6683    0.0000 C   0  0  0  0  0  0  0  0  0  0  0  0
    4.2365    1.8068    0.0000 C   0  0  0  0  0  0  0  0  0  0  0  0
    4.2365   -1.4933    0.0000 C   0  0  0  0  0  0  0  0  0  0  0  0
    2.8075   -1.4933    0.0000 C   0  0  0  0  0  0  0  0  0  0  0  0
    3.5220   -1.9058    0.0000 C   0  0  0  0  0  0  0  0  0  0  0  0
  1 14  1  0  0  0  0
  2 11  1  0  0  0  0
  3 11  2  0  0  0  0
  4  8  1  0  0  0  0
  5  6  1  0  0  0  0
  5  7  1  0  0  0  0
  5  8  1  0  0  0  0
  6  9  2  0  0  0  0
  6 10  1  0  0  0  0
  7 11  1  0  0  0  0
  9 12  1  0  0  0  0
 10 13  2  0  0  0  0
 12 14  2  0  0  0  0
 13 14  1  0  0  0  0
M  END
>  <DRUGBANK_ID>
DB00181

>  <DRUG_GROUPS>
approved

>  <GENERIC_NAME>
Baclofen

>  <BRANDS>
Baclon; Kemstro; Lioresal; Lioresal Intrathecal; Nu-Baclofen; Pms-Baclofen

>  <CHEMICAL_FORMULA>
C10H12ClNO2

>  <MOLECULAR_WEIGHT>
213.661

>  <EXACT_MASS>
213.05565634

>  <IUPAC_NAME>
4-amino-3-(4-chlorophenyl)butanoic acid

>  <INCHI_IDENTIFIER>
InChI=1S/C10H12ClNO2/c11-9-3-1-7(2-4-9)8(6-12)5-10(13)14/h1-4,8H,5-6,12H2,(H,13,14)

>  <INCHI_KEY>
InChIKey=KPYSYYIEGFHWSV-UHFFFAOYSA-N

>  <SMILES>
NCC(CC(O)=O)C1=CC=C(Cl)C=C1

>  <JCHEM_ACCEPTOR_COUNT>
3

>  <JCHEM_DONOR_COUNT>
2

>  <JCHEM_ACIDIC_PKA>
3.89

>  <JCHEM_BASIC_PKA>
9.79

>  <JCHEM_PHYSIOLOGICAL_CHARGE>
0

>  <ALOGPS_LOGP>
-0.82

>  <JCHEM_LOGP>
-0.78

>  <ALOGPS_LOGS>
-2.5

>  <JCHEM_POLARIZABILITY>
21.13

>  <JCHEM_POLAR_SURFACE_AREA>
63.32

>  <JCHEM_REFRACTIVITY>
54.83

>  <JCHEM_ROTATABLE_BOND_COUNT>
4

>  <ALOGPS_SOLUBILITY>
7.12e-01 g/l

$$$$

  Mrv0541 04191212102D          

 10 10  0  0  0  0            999 V2000
   -0.1480    0.2044    0.0000 C   0  0  0  0  0  0  0  0  0  0  0  0
   -0.1480   -0.6206    0.0000 C   0  0  0  0  0  0  0  0  0  0  0  0
   -0.8625    0.6169    0.0000 C   0  0  0  0  0  0  0  0  0  0  0  0
    0.5665    0.6169    0.0000 C   0  0  0  0  0  0  0  0  0  0  0  0
   -0.8625   -1.0331    0.0000 C   0  0  0  0  0  0  0  0  0  0  0  0
   -1.5770    0.2044    0.0000 C   0  0  0  0  0  0  0  0  0  0  0  0
    1.2809    0.2044    0.0000 C   0  0  0  0  0  0  0  0  0  0  0  0
   -1.5770   -0.6206    0.0000 C   0  0  0  0  0  0  0  0  0  0  0  0
    1.2809   -0.6206    0.0000 C   0  0  0  0  0  0  0  0  0  0  0  0
    1.9954    0.6169    0.0000 N   0  0  0  0  0  0  0  0  0  0  0  0
  1  2  1  0  0  0  0
  1  3  2  0  0  0  0
  1  4  1  0  0  0  0
  2  5  2  0  0  0  0
  3  6  1  0  0  0  0
  4  7  1  0  0  0  0
  5  8  1  0  0  0  0
  7  9  1  0  0  0  0
  7 10  1  0  0  0  0
  6  8  2  0  0  0  0
M  END
>  <DRUGBANK_ID>
DB00182

>  <DRUG_GROUPS>
illicit; approved

>  <GENERIC_NAME>
Amphetamine

>  <SYNONYMS>
(+/-)-Benzedrine; (+/-)-beta-Phenylisopropylamine; (+/-)-Desoxynorephedrine; [1-(3-Methoxyphenyl)-2-propyl]amine; 1-Methyl-2-phenylethylamine; 1-Phenyl-2-aminopropane; 3-Methoxyamphetamine; alpha-Methylbenzeneethaneamine; Amfetamine; Amphetamine Sulfate; beta-Aminopropylbenzene; beta-phenyl-isopropylamine; dl-1-Phenyl-2-aminopropane; DL-alpha-Methylphenethylamine; dl-Amphetamine; dl-Benzedrine; Fenylo-izopropylaminyl; m-Methoxyamphetamine; Methamphetamine HCL

>  <BRANDS>
Actedron; Adipan; Allodene; Anorexide; Anorexine; Benzebar; Benzedrine; Benzolone; Dexampex; Elastonon; Fenamin; Ferndex; Finam; Isoamycin; Isoamyne; Isomyn; Mecodrin; Methampex; Norephedrane; Novydrine; Oktedrin; Ortedrine; Paredrine; Percomon; Phenamine; Phenedrine; Profamina; Propisamine; Psychedrine; Raphetamine; Rhinalator; Simpatedrin; Simpatina; Sympamin; Sympamine; Sympatedrine; Weckamine

>  <CHEMICAL_FORMULA>
C9H13N

>  <MOLECULAR_WEIGHT>
135.2062

>  <EXACT_MASS>
135.104799421

>  <IUPAC_NAME>
1-phenylpropan-2-amine

>  <INCHI_IDENTIFIER>
InChI=1S/C9H13N/c1-8(10)7-9-5-3-2-4-6-9/h2-6,8H,7,10H2,1H3

>  <INCHI_KEY>
InChIKey=KWTSXDURSIMDCE-UHFFFAOYSA-N

>  <SMILES>
CC(N)CC1=CC=CC=C1

>  <JCHEM_ACCEPTOR_COUNT>
1

>  <JCHEM_DONOR_COUNT>
1

>  <JCHEM_BASIC_PKA>
10.01

>  <JCHEM_PHYSIOLOGICAL_CHARGE>
1

>  <ALOGPS_LOGP>
1.85

>  <JCHEM_LOGP>
1.8

>  <ALOGPS_LOGS>
-1.9

>  <JCHEM_POLARIZABILITY>
16.17

>  <JCHEM_POLAR_SURFACE_AREA>
26.02

>  <JCHEM_REFRACTIVITY>
43.71

>  <JCHEM_ROTATABLE_BOND_COUNT>
2

>  <ALOGPS_SOLUBILITY>
1.74e+00 g/l

$$$$
183
  Mrv0541 02231214302D          

 54 56  0  0  1  0            999 V2000
    6.8736    0.4439    0.0000 S   0  0  0  0  0  0  0  0  0  0  0  0
    6.1047   -1.9087    0.0000 O   0  0  0  0  0  0  0  0  0  0  0  0
    3.6446   -0.2366    0.0000 O   0  0  0  0  0  0  0  0  0  0  0  0
    3.8624    2.7300    0.0000 O   0  0  0  0  0  0  0  0  0  0  0  0
    6.6558   -2.5227    0.0000 O   0  0  0  0  0  0  0  0  0  0  0  0
    1.9917    1.6055    0.0000 O   0  0  0  0  0  0  0  0  0  0  0  0
    6.5406    4.0246    0.0000 O   0  0  0  0  0  0  0  0  0  0  0  0
    3.0552    2.5599    0.0000 O   0  0  0  0  0  0  0  0  0  0  0  0
    9.6669   -4.8088    0.0000 O   0  0  0  0  0  0  0  0  0  0  0  0
    9.3723   -3.4105    0.0000 O   0  0  0  0  0  0  0  0  0  0  0  0
    4.7465   -1.4647    0.0000 N   0  0  0  0  0  0  0  0  0  0  0  0
    5.5922   -3.4770    0.0000 N   0  0  0  0  0  0  0  0  0  0  0  0
    4.7082    0.7177    0.0000 N   0  0  0  0  0  0  0  0  0  0  0  0
    3.9776   -5.1451    0.0000 N   0  0  0  0  0  0  0  0  0  0  0  0
    5.2207    2.2861    0.0000 N   0  0  0  0  0  0  0  0  0  0  0  0
    8.3087   -4.3649    0.0000 N   0  0  0  0  0  0  0  0  0  0  0  0
    6.8353    2.6263    0.0000 N   0  0  0  0  0  0  0  0  0  0  0  0
    5.0412   -2.8629    0.0000 C   0  0  1  0  0  0  0  0  0  0  0  0
    4.2339   -3.0331    0.0000 C   0  0  0  0  0  0  0  0  0  0  0  0
    5.0028   -0.6805    0.0000 C   0  0  1  0  0  0  0  0  0  0  0  0
    3.9776   -3.8173    0.0000 C   0  0  0  0  0  0  0  0  0  0  0  0
    5.2975   -2.0788    0.0000 C   0  0  0  0  0  0  0  0  0  0  0  0
    5.8100   -0.5104    0.0000 C   0  0  0  0  0  0  0  0  0  0  0  0
    3.1970   -4.0687    0.0000 C   0  0  0  0  0  0  0  0  0  0  0  0
    4.4518   -0.0665    0.0000 C   0  0  0  0  0  0  0  0  0  0  0  0
    4.1571    1.3317    0.0000 C   0  0  1  0  0  0  0  0  0  0  0  0
    3.1970   -4.8937    0.0000 C   0  0  0  0  0  0  0  0  0  0  0  0
    4.4591   -4.4812    0.0000 C   0  0  0  0  0  0  0  0  0  0  0  0
    6.0664    0.2738    0.0000 C   0  0  0  0  0  0  0  0  0  0  0  0
    3.3499    1.1616    0.0000 C   0  0  0  0  0  0  0  0  0  0  0  0
    2.4824   -3.6562    0.0000 C   0  0  0  0  0  0  0  0  0  0  0  0
    4.4135    2.1160    0.0000 C   0  0  0  0  0  0  0  0  0  0  0  0
    5.4770    3.0703    0.0000 C   0  0  1  0  0  0  0  0  0  0  0  0
    6.3994   -3.3069    0.0000 C   0  0  0  0  0  0  0  0  0  0  0  0
    2.4824   -5.3062    0.0000 C   0  0  0  0  0  0  0  0  0  0  0  0
    6.9504   -3.9209    0.0000 C   0  0  0  0  0  0  0  0  0  0  0  0
    4.9260    3.6843    0.0000 C   0  0  0  0  0  0  0  0  0  0  0  0
    1.7680   -4.0687    0.0000 C   0  0  0  0  0  0  0  0  0  0  0  0
    1.7680   -4.8937    0.0000 C   0  0  0  0  0  0  0  0  0  0  0  0
    7.7577   -3.7508    0.0000 C   0  0  0  0  0  0  0  0  0  0  0  0
    5.1824    4.4685    0.0000 C   0  0  0  0  0  0  0  0  0  0  0  0
    2.7989    1.7757    0.0000 C   0  0  0  0  0  0  0  0  0  0  0  0
    6.2843    3.2404    0.0000 C   0  0  0  0  0  0  0  0  0  0  0  0
    4.6313    5.0825    0.0000 C   0  0  0  0  0  0  0  0  0  0  0  0
    5.9896    4.6386    0.0000 C   0  0  0  0  0  0  0  0  0  0  0  0
    7.1300    1.2281    0.0000 C   0  0  0  0  0  0  0  0  0  0  0  0
    4.8877    5.8668    0.0000 C   0  0  0  0  0  0  0  0  0  0  0  0
    6.2459    5.4229    0.0000 C   0  0  0  0  0  0  0  0  0  0  0  0
   11.0252   -5.2527    0.0000 C   0  0  0  0  0  0  0  0  0  0  0  0
    9.1159   -4.1948    0.0000 C   0  0  0  0  0  0  0  0  0  0  0  0
    5.6949    6.0369    0.0000 C   0  0  0  0  0  0  0  0  0  0  0  0
   10.4742   -4.6386    0.0000 C   0  0  0  0  0  0  0  0  0  0  0  0
   11.8324   -5.0825    0.0000 C   0  0  0  0  0  0  0  0  0  0  0  0
   10.7688   -6.0369    0.0000 C   0  0  0  0  0  0  0  0  0  0  0  0
  1 29  1  0  0  0  0
  1 46  1  0  0  0  0
  2 22  2  0  0  0  0
  3 25  2  0  0  0  0
  4 32  2  0  0  0  0
  5 34  2  0  0  0  0
  6 42  1  0  0  0  0
  7 43  2  0  0  0  0
  8 42  2  0  0  0  0
  9 50  1  0  0  0  0
  9 52  1  0  0  0  0
 10 50  2  0  0  0  0
 20 11  1  6  0  0  0
 11 22  1  0  0  0  0
 18 12  1  1  0  0  0
 12 34  1  0  0  0  0
 13 25  1  0  0  0  0
 26 13  1  1  0  0  0
 14 27  1  0  0  0  0
 14 28  1  0  0  0  0
 15 32  1  0  0  0  0
 33 15  1  1  0  0  0
 16 40  1  0  0  0  0
 16 50  1  0  0  0  0
 17 43  1  0  0  0  0
 18 19  1  0  0  0  0
 18 22  1  0  0  0  0
 19 21  1  0  0  0  0
 20 23  1  0  0  0  0
 20 25  1  0  0  0  0
 21 24  1  0  0  0  0
 21 28  2  0  0  0  0
 23 29  1  0  0  0  0
 24 27  1  0  0  0  0
 24 31  2  0  0  0  0
 26 30  1  0  0  0  0
 26 32  1  0  0  0  0
 27 35  2  0  0  0  0
 30 42  1  0  0  0  0
 31 38  1  0  0  0  0
 33 37  1  0  0  0  0
 33 43  1  0  0  0  0
 34 36  1  0  0  0  0
 35 39  1  0  0  0  0
 36 40  1  0  0  0  0
 37 41  1  0  0  0  0
 38 39  2  0  0  0  0
 41 44  2  0  0  0  0
 41 45  1  0  0  0  0
 44 47  1  0  0  0  0
 45 48  2  0  0  0  0
 47 51  2  0  0  0  0
 48 51  1  0  0  0  0
 49 52  1  0  0  0  0
 49 53  1  0  0  0  0
 49 54  1  0  0  0  0
M  END
>  <DRUGBANK_ID>
DB00183

>  <DRUG_GROUPS>
approved

>  <GENERIC_NAME>
Pentagastrin

>  <BRANDS>
Peptavlon

>  <CHEMICAL_FORMULA>
C37H49N7O9S

>  <MOLECULAR_WEIGHT>
767.891

>  <EXACT_MASS>
767.331246891

>  <IUPAC_NAME>
(3S)-3-{[(1S)-1-carbamoyl-2-phenylethyl]carbamoyl}-3-[(2S)-2-[(2S)-3-(1H-indol-3-yl)-2-(3-{[(2-methylpropoxy)carbonyl]amino}propanamido)propanamido]-4-(methylsulfanyl)butanamido]propanoic acid

>  <INCHI_IDENTIFIER>
InChI=1S/C37H49N7O9S/c1-22(2)21-53-37(52)39-15-13-31(45)41-29(18-24-20-40-26-12-8-7-11-25(24)26)35(50)42-27(14-16-54-3)34(49)44-30(19-32(46)47)36(51)43-28(33(38)48)17-23-9-5-4-6-10-23/h4-12,20,22,27-30,40H,13-19,21H2,1-3H3,(H2,38,48)(H,39,52)(H,41,45)(H,42,50)(H,43,51)(H,44,49)(H,46,47)/t27-,28-,29-,30-/m0/s1

>  <INCHI_KEY>
InChIKey=ALXRNCVIQSDJAO-KRCBVYEFSA-N

>  <SMILES>
CSCC[C@H](NC(=O)[C@H](CC1=CNC2=CC=CC=C12)NC(=O)CCNC(=O)OCC(C)C)C(=O)N[C@@H](CC(O)=O)C(=O)N[C@@H](CC1=CC=CC=C1)C(N)=O

>  <JCHEM_ACCEPTOR_COUNT>
8

>  <JCHEM_DONOR_COUNT>
8

>  <JCHEM_ACIDIC_PKA>
4

>  <JCHEM_PHYSIOLOGICAL_CHARGE>
-1

>  <ALOGPS_LOGP>
1.57

>  <JCHEM_LOGP>
1.24

>  <ALOGPS_LOGS>
-5.4

>  <JCHEM_POLARIZABILITY>
80.96

>  <JCHEM_POLAR_SURFACE_AREA>
250.91

>  <JCHEM_REFRACTIVITY>
199.97

>  <JCHEM_ROTATABLE_BOND_COUNT>
23

>  <ALOGPS_SOLUBILITY>
3.09e-03 g/l

$$$$
184
  Mrv0541 02231214302D          

 12 13  0  0  1  0            999 V2000
    2.4347    1.0877    0.0000 N   0  0  0  0  0  0  0  0  0  0  0  0
    2.3876   -1.4598    0.0000 N   0  0  0  0  0  0  0  0  0  0  0  0
    3.1022    0.6028    0.0000 C   0  0  0  0  0  0  0  0  0  0  0  0
    3.7696    1.0877    0.0000 C   0  0  0  0  0  0  0  0  0  0  0  0
    3.5147    1.8723    0.0000 C   0  0  0  0  0  0  0  0  0  0  0  0
    2.6896    1.8723    0.0000 C   0  0  0  0  0  0  0  0  0  0  0  0
    3.1022   -0.2223    0.0000 C   0  0  0  0  0  0  0  0  0  0  0  0
    1.6500    0.8327    0.0000 C   0  0  0  0  0  0  0  0  0  0  0  0
    3.8166   -0.6348    0.0000 C   0  0  0  0  0  0  0  0  0  0  0  0
    2.3876   -0.6348    0.0000 C   0  0  0  0  0  0  0  0  0  0  0  0
    3.8166   -1.4598    0.0000 C   0  0  0  0  0  0  0  0  0  0  0  0
    3.1022   -1.8723    0.0000 C   0  0  0  0  0  0  0  0  0  0  0  0
  1  3  1  0  0  0  0
  1  6  1  0  0  0  0
  1  8  1  0  0  0  0
  2 10  1  0  0  0  0
  2 12  2  0  0  0  0
  3  4  1  0  0  0  0
  3  7  1  0  0  0  0
  4  5  1  0  0  0  0
  5  6  1  0  0  0  0
  7  9  1  0  0  0  0
  7 10  2  0  0  0  0
  9 11  2  0  0  0  0
 11 12  1  0  0  0  0
M  END
>  <DRUGBANK_ID>
DB00184

>  <DRUG_GROUPS>
approved

>  <GENERIC_NAME>
Nicotine

>  <SYNONYMS>
L-Nicotine; Nicotine Alkaloid

>  <BRANDS>
Black Leaf; Black Leaf 40; Campbell's Nico-Soap; Commit; Destruxol Orchid Spray; Emo-Nik; Flux Maag; Fumetobac; Habitrol; Mach-Nic; Niagara P.A. Dust; Nic-Sal; Nico-Dust; Nico-Fume; Nicocide; Nicoderm; Nicoderm Cq; Nicorette; Nicorette Plus; Nicotin; Nicotina; Nicotine Polacrilex; Nicotrol; Nicotrol Inhaler; Nicotrol Ns; Nikotyna; Ortho N-4 Dust; Ortho N-5 Dust; Prostep; Tendust

>  <CHEMICAL_FORMULA>
C10H14N2

>  <MOLECULAR_WEIGHT>
162.2316

>  <EXACT_MASS>
162.115698458

>  <IUPAC_NAME>
3-(1-methylpyrrolidin-2-yl)pyridine

>  <INCHI_IDENTIFIER>
InChI=1S/C10H14N2/c1-12-7-3-5-10(12)9-4-2-6-11-8-9/h2,4,6,8,10H,3,5,7H2,1H3

>  <INCHI_KEY>
InChIKey=SNICXCGAKADSCV-UHFFFAOYSA-N

>  <SMILES>
CN1CCCC1C1=CN=CC=C1

>  <JCHEM_ACCEPTOR_COUNT>
2

>  <JCHEM_DONOR_COUNT>
0

>  <JCHEM_BASIC_PKA>
8.86

>  <JCHEM_PHYSIOLOGICAL_CHARGE>
1

>  <ALOGPS_LOGP>
0.87

>  <JCHEM_LOGP>
1.16

>  <ALOGPS_LOGS>
-0.24

>  <JCHEM_POLARIZABILITY>
18.62

>  <JCHEM_POLAR_SURFACE_AREA>
16.13

>  <JCHEM_REFRACTIVITY>
49.66

>  <JCHEM_ROTATABLE_BOND_COUNT>
1

>  <ALOGPS_SOLUBILITY>
9.33e+01 g/l

$$$$

  Mrv0541 04191212102D          

 13 15  0  0  0  0            999 V2000
   -0.4743    0.0388    0.0000 C   0  0  0  0  0  0  0  0  0  0  0  0
   -1.2993    0.0388    0.0000 C   0  0  0  0  0  0  0  0  0  0  0  0
   -1.7118   -0.6757    0.0000 C   0  0  0  0  0  0  0  0  0  0  0  0
   -1.2993   -1.3902    0.0000 N   0  0  0  0  0  0  0  0  0  0  0  0
   -0.4743   -1.3902    0.0000 C   0  0  0  0  0  0  0  0  0  0  0  0
   -0.4743   -0.7862    0.0000 C   0  0  0  0  0  0  0  0  0  0  0  0
   -1.2993   -0.7862    0.0000 C   0  0  0  0  0  0  0  0  0  0  0  0
    0.3340    0.0481    0.0000 C   0  0  0  0  0  0  0  0  0  0  0  0
   -0.0618   -0.6757    0.0000 C   0  0  1  0  0  0  0  0  0  0  0  0
    0.5042   -1.2759    0.0000 O   0  0  0  0  0  0  0  0  0  0  0  0
    1.2499   -0.9230    0.0000 C   0  0  0  0  0  0  0  0  0  0  0  0
    1.1448   -0.1047    0.0000 S   0  0  0  0  0  0  0  0  0  0  0  0
    1.9737   -1.3188    0.0000 C   0  0  0  0  0  0  0  0  0  0  0  0
  1  2  1  0  0  0  0
  2  3  1  0  0  0  0
  3  4  1  0  0  0  0
  4  5  1  0  0  0  0
  5  9  1  0  0  0  0
  1  9  1  0  0  0  0
  1  6  1  0  0  0  0
  6  7  1  0  0  0  0
  4  7  1  0  0  0  0
  8  9  1  0  0  0  0
  9 10  1  1  0  0  0
 10 11  1  0  0  0  0
 11 12  1  0  0  0  0
  8 12  1  0  0  0  0
 11 13  1  0  0  0  0
M  END
>  <DRUGBANK_ID>
DB00185

>  <DRUG_GROUPS>
approved

>  <GENERIC_NAME>
Cevimeline

>  <SYNONYMS>
Cevimeline hydrochloride; Cevimeline hydrochloride hemihydrate; Cevimeline hydrochloride hydrate

>  <BRANDS>
Evoxac; Saligren

>  <CHEMICAL_FORMULA>
C10H17NOS

>  <MOLECULAR_WEIGHT>
199.313

>  <EXACT_MASS>
199.103084861

>  <IUPAC_NAME>
(2R)-5'-methyl-4-azaspiro[bicyclo[2.2.2]octane-2,2'-[1,4]oxathiolane]

>  <INCHI_IDENTIFIER>
InChI=1S/C10H17NOS/c1-8-12-10(7-13-8)6-11-4-2-9(10)3-5-11/h8-9H,2-7H2,1H3/t8?,10-/m1/s1

>  <INCHI_KEY>
InChIKey=WUTYZMFRCNBCHQ-LHIURRSHSA-N

>  <SMILES>
CC1O[C@@]2(CS1)CN1CCC2CC1

>  <JCHEM_ACCEPTOR_COUNT>
2

>  <JCHEM_DONOR_COUNT>
0

>  <JCHEM_BASIC_PKA>
8.59

>  <JCHEM_PHYSIOLOGICAL_CHARGE>
1

>  <ALOGPS_LOGP>
1.46

>  <JCHEM_LOGP>
1

>  <ALOGPS_LOGS>
-1.9

>  <JCHEM_POLARIZABILITY>
21.89

>  <JCHEM_POLAR_SURFACE_AREA>
12.47

>  <JCHEM_REFRACTIVITY>
55.92

>  <JCHEM_ROTATABLE_BOND_COUNT>
0

>  <ALOGPS_SOLUBILITY>
2.41e+00 g/l

$$$$
186
  Mrv0541 02231214302D          

 21 23  0  0  1  0            999 V2000
    2.5467   -2.3783    0.0000 Cl  0  0  0  0  0  0  0  0  0  0  0  0
    3.6080   -1.4841    0.0000 Cl  0  0  0  0  0  0  0  0  0  0  0  0
    3.8811    2.3401    0.0000 O   0  0  0  0  0  0  0  0  0  0  0  0
    2.3403    2.3401    0.0000 O   0  0  0  0  0  0  0  0  0  0  0  0
    2.1838    0.9518    0.0000 N   0  0  0  0  0  0  0  0  0  0  0  0
    4.0375    0.9518    0.0000 N   0  0  0  0  0  0  0  0  0  0  0  0
    3.1106   -0.2105    0.0000 C   0  0  0  0  0  0  0  0  0  0  0  0
    3.8540    0.1475    0.0000 C   0  0  0  0  0  0  0  0  0  0  0  0
    2.3674    0.1475    0.0000 C   0  0  0  0  0  0  0  0  0  0  0  0
    4.4989   -0.3669    0.0000 C   0  0  0  0  0  0  0  0  0  0  0  0
    3.5231    1.5968    0.0000 C   0  0  0  0  0  0  0  0  0  0  0  0
    3.1881   -1.0663    0.0000 C   0  0  0  0  0  0  0  0  0  0  0  0
    2.6981    1.5968    0.0000 C   0  0  0  0  0  0  0  0  0  0  0  0
    1.6500   -0.3256    0.0000 C   0  0  0  0  0  0  0  0  0  0  0  0
    2.4818   -1.5559    0.0000 C   0  0  0  0  0  0  0  0  0  0  0  0
    1.7076   -1.1830    0.0000 C   0  0  0  0  0  0  0  0  0  0  0  0
    4.3760   -1.1827    0.0000 C   0  0  0  0  0  0  0  0  0  0  0  0
    5.2669   -0.0655    0.0000 C   0  0  0  0  0  0  0  0  0  0  0  0
    5.0210   -1.6971    0.0000 C   0  0  0  0  0  0  0  0  0  0  0  0
    5.9120   -0.5799    0.0000 C   0  0  0  0  0  0  0  0  0  0  0  0
    5.7890   -1.3956    0.0000 C   0  0  0  0  0  0  0  0  0  0  0  0
  1 15  1  0  0  0  0
  2 17  1  0  0  0  0
  3 11  1  0  0  0  0
  4 13  2  0  0  0  0
  5  9  1  0  0  0  0
  5 13  1  0  0  0  0
  6  8  2  0  0  0  0
  6 11  1  0  0  0  0
  7  8  1  0  0  0  0
  7  9  2  0  0  0  0
  7 12  1  0  0  0  0
  8 10  1  0  0  0  0
  9 14  1  0  0  0  0
 10 17  1  0  0  0  0
 10 18  2  0  0  0  0
 11 13  1  0  0  0  0
 12 15  2  0  0  0  0
 14 16  2  0  0  0  0
 15 16  1  0  0  0  0
 17 19  2  0  0  0  0
 18 20  1  0  0  0  0
 19 21  1  0  0  0  0
 20 21  2  0  0  0  0
M  END
>  <DRUGBANK_ID>
DB00186

>  <DRUG_GROUPS>
approved

>  <GENERIC_NAME>
Lorazepam

>  <SYNONYMS>
(+/-)-Lorazepam; O-Chlorooxazepam; O-Chloroxazepam

>  <BRANDS>
Almazine; Alzapam; Anxiedin; Aplacassee; Ativan; Bonatranquan; Delormetazepam; Emotival; Idalprem; Lorabenz; Lorax; Loraz; Lorazepam Intensol; Lorsilan; Pro Dorm; Psicopax; Punktyl; Quait; Securit; Sedatival; Sedazin; Somagerol; Tavor; Temesta; Wypax

>  <CHEMICAL_FORMULA>
C15H10Cl2N2O2

>  <MOLECULAR_WEIGHT>
321.158

>  <EXACT_MASS>
320.011932988

>  <IUPAC_NAME>
7-chloro-5-(2-chlorophenyl)-3-hydroxy-2,3-dihydro-1H-1,4-benzodiazepin-2-one

>  <INCHI_IDENTIFIER>
InChI=1S/C15H10Cl2N2O2/c16-8-5-6-12-10(7-8)13(19-15(21)14(20)18-12)9-3-1-2-4-11(9)17/h1-7,15,21H,(H,18,20)

>  <INCHI_KEY>
InChIKey=DIWRORZWFLOCLC-UHFFFAOYSA-N

>  <SMILES>
OC1N=C(C2=CC=CC=C2Cl)C2=C(NC1=O)C=CC(Cl)=C2

>  <JCHEM_ACCEPTOR_COUNT>
3

>  <JCHEM_DONOR_COUNT>
2

>  <JCHEM_ACIDIC_PKA>
10.61

>  <JCHEM_BASIC_PKA>
-2.2

>  <JCHEM_PHYSIOLOGICAL_CHARGE>
0

>  <ALOGPS_LOGP>
2.98

>  <JCHEM_LOGP>
3.53

>  <ALOGPS_LOGS>
-4.3

>  <JCHEM_POLARIZABILITY>
30.33

>  <JCHEM_POLAR_SURFACE_AREA>
61.69

>  <JCHEM_REFRACTIVITY>
82.7

>  <JCHEM_ROTATABLE_BOND_COUNT>
1

>  <ALOGPS_SOLUBILITY>
1.76e-02 g/l

$$$$
187
  Mrv0541 02231214302D          

 21 21  0  0  1  0            999 V2000
    3.0790    1.0313    0.0000 O   0  0  0  0  0  0  0  0  0  0  0  0
    3.0790    2.6812    0.0000 O   0  0  0  0  0  0  0  0  0  0  0  0
    1.6500   -3.9188    0.0000 O   0  0  0  0  0  0  0  0  0  0  0  0
    3.0790   -3.9188    0.0000 O   0  0  0  0  0  0  0  0  0  0  0  0
    4.5079    3.5062    0.0000 N   0  0  0  0  0  0  0  0  0  0  0  0
    3.7934    2.2688    0.0000 C   0  0  0  0  0  0  0  0  0  0  0  0
    4.5079    2.6812    0.0000 C   0  0  0  0  0  0  0  0  0  0  0  0
    5.2223    3.9188    0.0000 C   0  0  0  0  0  0  0  0  0  0  0  0
    3.7934    1.4438    0.0000 C   0  0  0  0  0  0  0  0  0  0  0  0
    5.2223    4.7438    0.0000 C   0  0  0  0  0  0  0  0  0  0  0  0
    5.9369    3.5062    0.0000 C   0  0  0  0  0  0  0  0  0  0  0  0
    3.0790   -1.4438    0.0000 C   0  0  0  0  0  0  0  0  0  0  0  0
    3.0790   -2.2688    0.0000 C   0  0  0  0  0  0  0  0  0  0  0  0
    3.0790    0.2063    0.0000 C   0  0  0  0  0  0  0  0  0  0  0  0
    2.3644   -1.0313    0.0000 C   0  0  0  0  0  0  0  0  0  0  0  0
    3.7934   -1.0313    0.0000 C   0  0  0  0  0  0  0  0  0  0  0  0
    2.3644   -0.2063    0.0000 C   0  0  0  0  0  0  0  0  0  0  0  0
    3.7934   -0.2063    0.0000 C   0  0  0  0  0  0  0  0  0  0  0  0
    2.3644   -2.6812    0.0000 C   0  0  0  0  0  0  0  0  0  0  0  0
    2.3644   -3.5062    0.0000 C   0  0  0  0  0  0  0  0  0  0  0  0
    1.6500   -4.7438    0.0000 C   0  0  0  0  0  0  0  0  0  0  0  0
  1  9  1  0  0  0  0
  1 14  1  0  0  0  0
  2  6  1  0  0  0  0
  3 20  1  0  0  0  0
  3 21  1  0  0  0  0
  4 20  2  0  0  0  0
  5  7  1  0  0  0  0
  5  8  1  0  0  0  0
  6  7  1  0  0  0  0
  6  9  1  0  0  0  0
  8 10  1  0  0  0  0
  8 11  1  0  0  0  0
 12 13  1  0  0  0  0
 12 15  2  0  0  0  0
 12 16  1  0  0  0  0
 13 19  1  0  0  0  0
 14 17  2  0  0  0  0
 14 18  1  0  0  0  0
 15 17  1  0  0  0  0
 16 18  2  0  0  0  0
 19 20  1  0  0  0  0
M  END
>  <DRUGBANK_ID>
DB00187

>  <DRUG_GROUPS>
approved

>  <GENERIC_NAME>
Esmolol

>  <BRANDS>
Brevibloc; Esmolol HCL; Esmolol Hydrochloride

>  <CHEMICAL_FORMULA>
C16H25NO4

>  <MOLECULAR_WEIGHT>
295.374

>  <EXACT_MASS>
295.178358293

>  <IUPAC_NAME>
methyl 3-(4-{2-hydroxy-3-[(propan-2-yl)amino]propoxy}phenyl)propanoate

>  <INCHI_IDENTIFIER>
InChI=1S/C16H25NO4/c1-12(2)17-10-14(18)11-21-15-7-4-13(5-8-15)6-9-16(19)20-3/h4-5,7-8,12,14,17-18H,6,9-11H2,1-3H3

>  <INCHI_KEY>
InChIKey=AQNDDEOPVVGCPG-UHFFFAOYSA-N

>  <SMILES>
COC(=O)CCC1=CC=C(OCC(O)CNC(C)C)C=C1

>  <JCHEM_ACCEPTOR_COUNT>
4

>  <JCHEM_DONOR_COUNT>
2

>  <JCHEM_ACIDIC_PKA>
14.09

>  <JCHEM_BASIC_PKA>
9.67

>  <JCHEM_PHYSIOLOGICAL_CHARGE>
1

>  <ALOGPS_LOGP>
2.02

>  <JCHEM_LOGP>
1.82

>  <ALOGPS_LOGS>
-3.3

>  <JCHEM_POLARIZABILITY>
33.68

>  <JCHEM_POLAR_SURFACE_AREA>
67.79

>  <JCHEM_REFRACTIVITY>
81.05

>  <JCHEM_ROTATABLE_BOND_COUNT>
10

>  <ALOGPS_SOLUBILITY>
1.44e-01 g/l

$$$$

  Mrv0541 04191212102D          

 28 29  0  0  1  0            999 V2000
    6.9269  -17.7973    0.0000 C   0  0  0  0  0  0  0  0  0  0  0  0
    6.9269  -18.6223    0.0000 N   0  0  0  0  0  0  0  0  0  0  0  0
    6.2124  -17.3848    0.0000 C   0  0  0  0  0  0  0  0  0  0  0  0
    6.2124  -19.0348    0.0000 C   0  0  0  0  0  0  0  0  0  0  0  0
    5.4979  -17.7973    0.0000 N   0  0  0  0  0  0  0  0  0  0  0  0
    5.4979  -18.6223    0.0000 C   0  0  0  0  0  0  0  0  0  0  0  0
    7.6414  -17.3848    0.0000 C   0  0  0  0  0  0  0  0  0  0  0  0
    8.3558  -17.7973    0.0000 N   0  0  0  0  0  0  0  0  0  0  0  0
    7.6414  -16.5598    0.0000 O   0  0  0  0  0  0  0  0  0  0  0  0
    9.0703  -17.3848    0.0000 C   0  0  2  0  0  0  0  0  0  0  0  0
    9.7848  -17.7973    0.0000 C   0  0  0  0  0  0  0  0  0  0  0  0
    9.0703  -16.5598    0.0000 C   0  0  0  0  0  0  0  0  0  0  0  0
    9.7848  -16.1473    0.0000 C   0  0  0  0  0  0  0  0  0  0  0  0
    9.7848  -15.3222    0.0000 C   0  0  0  0  0  0  0  0  0  0  0  0
   10.4993  -16.5598    0.0000 C   0  0  0  0  0  0  0  0  0  0  0  0
   10.4994  -14.9097    0.0000 C   0  0  0  0  0  0  0  0  0  0  0  0
   11.2138  -16.1473    0.0000 C   0  0  0  0  0  0  0  0  0  0  0  0
   11.2138  -15.3222    0.0000 C   0  0  0  0  0  0  0  0  0  0  0  0
    9.7848  -18.6223    0.0000 O   0  0  0  0  0  0  0  0  0  0  0  0
   10.4993  -17.3848    0.0000 N   0  0  0  0  0  0  0  0  0  0  0  0
   11.2138  -17.7973    0.0000 C   0  0  1  0  0  0  0  0  0  0  0  0
   11.9282  -17.3848    0.0000 C   0  0  0  0  0  0  0  0  0  0  0  0
   12.6427  -17.7973    0.0000 C   0  0  0  0  0  0  0  0  0  0  0  0
   13.3572  -17.3848    0.0000 C   0  0  0  0  0  0  0  0  0  0  0  0
   12.6427  -18.6223    0.0000 C   0  0  0  0  0  0  0  0  0  0  0  0
   11.2138  -18.6223    0.0000 B   0  0  0  0  0  0  0  0  0  0  0  0
   10.4993  -19.0348    0.0000 O   0  0  0  0  0  0  0  0  0  0  0  0
   11.9282  -19.0348    0.0000 O   0  0  0  0  0  0  0  0  0  0  0  0
  2  1  1  0  0  0  0
  3  1  2  0  0  0  0
  4  2  2  0  0  0  0
  5  3  1  0  0  0  0
  6  4  1  0  0  0  0
  6  5  2  0  0  0  0
  1  7  1  0  0  0  0
  7  8  1  0  0  0  0
  7  9  2  0  0  0  0
 10  8  1  1  0  0  0
 10 11  1  0  0  0  0
 10 12  1  0  0  0  0
 14 13  1  0  0  0  0
 15 13  2  0  0  0  0
 16 14  2  0  0  0  0
 17 15  1  0  0  0  0
 18 16  1  0  0  0  0
 18 17  2  0  0  0  0
 12 13  1  0  0  0  0
 11 19  2  0  0  0  0
 11 20  1  0  0  0  0
 20 21  1  0  0  0  0
 21 22  1  0  0  0  0
 22 23  1  0  0  0  0
 23 24  1  0  0  0  0
 23 25  1  0  0  0  0
 21 26  1  1  0  0  0
 26 27  1  0  0  0  0
 26 28  1  0  0  0  0
M  END
>  <DRUGBANK_ID>
DB00188

>  <DRUG_GROUPS>
approved; investigational

>  <GENERIC_NAME>
Bortezomib

>  <BRANDS>
Velcade

>  <CHEMICAL_FORMULA>
C19H25BN4O4

>  <MOLECULAR_WEIGHT>
384.237

>  <EXACT_MASS>
384.196885774

>  <IUPAC_NAME>
[(1R)-3-methyl-1-[(2S)-3-phenyl-2-(pyrazin-2-ylformamido)propanamido]butyl]boronic acid

>  <INCHI_IDENTIFIER>
InChI=1S/C19H25BN4O4/c1-13(2)10-17(20(27)28)24-18(25)15(11-14-6-4-3-5-7-14)23-19(26)16-12-21-8-9-22-16/h3-9,12-13,15,17,27-28H,10-11H2,1-2H3,(H,23,26)(H,24,25)/t15-,17-/m0/s1

>  <INCHI_KEY>
InChIKey=GXJABQQUPOEUTA-RDJZCZTQSA-N

>  <SMILES>
CC(C)C[C@H](NC(=O)[C@H](CC1=CC=CC=C1)NC(=O)C1=CN=CC=N1)B(O)O

>  <JCHEM_ACCEPTOR_COUNT>
6

>  <JCHEM_DONOR_COUNT>
4

>  <JCHEM_ACIDIC_PKA>
13.04

>  <JCHEM_BASIC_PKA>
-0.7

>  <JCHEM_PHYSIOLOGICAL_CHARGE>
0

>  <ALOGPS_LOGP>
0.89

>  <JCHEM_LOGP>
1.53

>  <ALOGPS_LOGS>
-3.9

>  <JCHEM_POLARIZABILITY>
40.48

>  <JCHEM_POLAR_SURFACE_AREA>
124.44

>  <JCHEM_REFRACTIVITY>
99.37

>  <JCHEM_ROTATABLE_BOND_COUNT>
9

>  <ALOGPS_SOLUBILITY>
5.32e-02 g/l

$$$$

  Mrv0541 04191212102D          

 10  9  0  0  0  0            999 V2000
    6.2861   -7.7655    0.0000 C   0  0  0  0  0  0  0  0  0  0  0  0
    6.9920   -7.3579    0.0000 C   0  0  0  0  0  0  0  0  0  0  0  0
    7.6978   -7.7655    0.0000 C   0  0  0  0  0  0  0  0  0  0  0  0
    8.4037   -7.3579    0.0000 C   0  0  0  0  0  0  0  0  0  0  0  0
    9.1202   -7.7717    0.0000 Cl  0  0  0  0  0  0  0  0  0  0  0  0
    8.4035   -6.5294    0.0000 H   0  0  0  0  0  0  0  0  0  0  0  0
    7.3967   -6.6390    0.0000 C   0  0  0  0  0  0  0  0  0  0  0  0
    6.5693   -6.6390    0.0000 O   0  0  0  0  0  0  0  0  0  0  0  0
    5.5724   -7.3469    0.0000 C   0  0  0  0  0  0  0  0  0  0  0  0
    7.8054   -5.9213    0.0000 C   0  0  0  0  0  0  0  0  0  0  0  0
  2  1  1  0  0  0  0
  3  2  1  0  0  0  0
  4  3  2  0  0  0  0
  4  5  1  0  0  0  0
  4  6  1  4  0  0  0
  2  7  1  0  0  0  0
  2  8  1  0  0  0  0
  1  9  1  0  0  0  0
  7 10  3  0  0  0  0
M  END
>  <DRUGBANK_ID>
DB00189

>  <DRUG_GROUPS>
illicit; approved

>  <GENERIC_NAME>
Ethchlorvynol

>  <SYNONYMS>
Aethyl-chlorvynol; Etchlorvinolo; Ethchlorovynol; Ethchlorvinol; Ethchlorvinyl; Ethclorvynol; Ethochlorvynol; Ethychlorvynol

>  <BRANDS>
Alvinol; Arvynol; Normonson; Normosan; Normoson; Nostel; Nromoson; Placidil; Placidyl; Roeridorm; Serenesil; Serenil; Serensil; Serensiloline

>  <CHEMICAL_FORMULA>
C7H9ClO

>  <MOLECULAR_WEIGHT>
144.599

>  <EXACT_MASS>
144.034192617

>  <IUPAC_NAME>
1-chloro-3-ethylpent-1-en-4-yn-3-ol

>  <INCHI_IDENTIFIER>
InChI=1S/C7H9ClO/c1-3-7(9,4-2)5-6-8/h1,5-6,9H,4H2,2H3/b6-5+

>  <INCHI_KEY>
InChIKey=ZEHYJZXQEQOSON-AATRIKPKSA-N

>  <SMILES>
[H]C(Cl)=CC(O)(CC)C#C

>  <JCHEM_ACCEPTOR_COUNT>
1

>  <JCHEM_DONOR_COUNT>
1

>  <JCHEM_ACIDIC_PKA>
12.88

>  <JCHEM_BASIC_PKA>
-3.7

>  <JCHEM_PHYSIOLOGICAL_CHARGE>
0

>  <ALOGPS_LOGP>
1.45

>  <JCHEM_LOGP>
1.62

>  <ALOGPS_LOGS>
-3

>  <JCHEM_POLARIZABILITY>
14.77

>  <JCHEM_POLAR_SURFACE_AREA>
20.23

>  <JCHEM_REFRACTIVITY>
38.64

>  <JCHEM_ROTATABLE_BOND_COUNT>
2

>  <ALOGPS_SOLUBILITY>
1.43e-01 g/l

$$$$

  Mrv0541 04191212102D          

 17 16  0  0  1  0            999 V2000
    5.4359   -5.9191    0.0000 C   0  0  0  0  0  0  0  0  0  0  0  0
    5.4359   -6.7442    0.0000 C   0  0  0  0  0  0  0  0  0  0  0  0
    4.7214   -5.5066    0.0000 C   0  0  0  0  0  0  0  0  0  0  0  0
    4.7214   -7.1567    0.0000 C   0  0  0  0  0  0  0  0  0  0  0  0
    4.0069   -5.9191    0.0000 C   0  0  0  0  0  0  0  0  0  0  0  0
    4.0069   -6.7442    0.0000 C   0  0  0  0  0  0  0  0  0  0  0  0
    3.2925   -5.5067    0.0000 O   0  0  0  0  0  0  0  0  0  0  0  0
    3.2925   -7.1567    0.0000 O   0  0  0  0  0  0  0  0  0  0  0  0
    6.1504   -5.5066    0.0000 C   0  0  0  0  0  0  0  0  0  0  0  0
    6.8649   -5.9191    0.0000 C   0  0  2  0  0  0  0  0  0  0  0  0
    7.5793   -5.5066    0.0000 C   0  0  0  0  0  0  0  0  0  0  0  0
    8.2938   -5.9191    0.0000 O   0  0  0  0  0  0  0  0  0  0  0  0
    7.5793   -4.6816    0.0000 O   0  0  0  0  0  0  0  0  0  0  0  0
    6.4609   -6.6299    0.0000 C   0  0  0  0  0  0  0  0  0  0  0  0
    7.2859   -6.6299    0.0000 N   0  0  0  0  0  0  0  0  0  0  0  0
    6.8814   -7.3490    0.0000 N   0  0  0  0  0  0  0  0  0  0  0  0
    8.6477   -7.2561    0.0000 O   0  0  0  0  0  0  0  0  0  0  0  0
  2  1  1  0  0  0  0
  3  1  2  0  0  0  0
  4  2  2  0  0  0  0
  5  3  1  0  0  0  0
  6  4  1  0  0  0  0
  6  5  2  0  0  0  0
  5  7  1  0  0  0  0
  6  8  1  0  0  0  0
  1  9  1  0  0  0  0
  9 10  1  0  0  0  0
 10 11  1  0  0  0  0
 11 12  1  0  0  0  0
 11 13  2  0  0  0  0
 10 14  1  0  0  0  0
 10 15  1  1  0  0  0
 15 16  1  0  0  0  0
M  END
>  <DRUGBANK_ID>
DB00190

>  <DRUG_GROUPS>
approved

>  <GENERIC_NAME>
Carbidopa

>  <SYNONYMS>
Alpha-Methyldopahydrazine; C-DOPA; Carbidopa Anhydrous; Carbidopa Monohydrate; Carbidopum [INN-Latin]; MK-486; N-Aminomethyldopa

>  <BRANDS>
Atamet; HMD; Lodosin; Lodosyn

>  <CHEMICAL_FORMULA>
C10H16N2O5

>  <MOLECULAR_WEIGHT>
244.2444

>  <EXACT_MASS>
244.105921632

>  <IUPAC_NAME>
(2S)-3-(3,4-dihydroxyphenyl)-2-hydrazinyl-2-methylpropanoic acid hydrate

>  <INCHI_IDENTIFIER>
InChI=1S/C10H14N2O4.H2O/c1-10(12-11,9(15)16)5-6-2-3-7(13)8(14)4-6;/h2-4,12-14H,5,11H2,1H3,(H,15,16);1H2/t10-;/m0./s1

>  <INCHI_KEY>
InChIKey=QTAOMKOIBXZKND-PPHPATTJSA-N

>  <SMILES>
O.C[C@@](CC1=CC(O)=C(O)C=C1)(NN)C(O)=O

>  <JCHEM_ACCEPTOR_COUNT>
6

>  <JCHEM_DONOR_COUNT>
5

>  <JCHEM_ACIDIC_PKA>
3.59

>  <JCHEM_BASIC_PKA>
5.65

>  <JCHEM_PHYSIOLOGICAL_CHARGE>
-1

>  <JCHEM_LOGP>
-1.2

>  <JCHEM_POLARIZABILITY>
21.81

>  <JCHEM_POLAR_SURFACE_AREA>
115.81

>  <JCHEM_REFRACTIVITY>
68.77

>  <JCHEM_ROTATABLE_BOND_COUNT>
4

$$$$
191
  Mrv0541 02231214302D          

 11 11  0  0  0  0            999 V2000
    3.7935    1.3943    0.0000 N   0  0  0  0  0  0  0  0  0  0  0  0
    3.0791    0.9818    0.0000 C   0  0  0  0  0  0  0  0  0  0  0  0
    2.3645    0.5693    0.0000 C   0  0  0  0  0  0  0  0  0  0  0  0
    2.6665    1.6962    0.0000 C   0  0  0  0  0  0  0  0  0  0  0  0
    3.4916    0.2673    0.0000 C   0  0  0  0  0  0  0  0  0  0  0  0
    2.3645   -0.2558    0.0000 C   0  0  0  0  0  0  0  0  0  0  0  0
    3.0791   -0.6683    0.0000 C   0  0  0  0  0  0  0  0  0  0  0  0
    1.6500   -0.6683    0.0000 C   0  0  0  0  0  0  0  0  0  0  0  0
    3.0791   -1.4933    0.0000 C   0  0  0  0  0  0  0  0  0  0  0  0
    1.6500   -1.4933    0.0000 C   0  0  0  0  0  0  0  0  0  0  0  0
    2.3645   -1.9058    0.0000 C   0  0  0  0  0  0  0  0  0  0  0  0
  1  2  1  0  0  0  0
  2  3  1  0  0  0  0
  2  4  1  0  0  0  0
  2  5  1  0  0  0  0
  3  6  1  0  0  0  0
  6  7  2  0  0  0  0
  6  8  1  0  0  0  0
  7  9  1  0  0  0  0
  8 10  2  0  0  0  0
  9 11  2  0  0  0  0
 10 11  1  0  0  0  0
M  END
>  <DRUGBANK_ID>
DB00191

>  <DRUG_GROUPS>
illicit; approved

>  <GENERIC_NAME>
Phentermine

>  <SYNONYMS>
(alpha,alpha)-Dimethylphenethylamine

>  <SALTS>
Phentermine Hydrochloride

>  <BRANDS>
Adipex-P; Duromine; Fastin; Inoamin; Ionamin; Linyl; Lipopill; Lonamin; Mirapront; Normephentermine; Obenix; Obestin-30; Oby-Trim; Omnibex; Ona Mast; Ona-Mast; Phentercot; Phentermine Resin 30; Phentride; Pro-Fast; Suprenza; Teramine; Tora; Uritone; Wilpo; Wyamine Sulfate; Zantryl

>  <CHEMICAL_FORMULA>
C10H15N

>  <MOLECULAR_WEIGHT>
149.2328

>  <EXACT_MASS>
149.120449485

>  <IUPAC_NAME>
2-methyl-1-phenylpropan-2-amine

>  <INCHI_IDENTIFIER>
InChI=1S/C10H15N/c1-10(2,11)8-9-6-4-3-5-7-9/h3-7H,8,11H2,1-2H3

>  <INCHI_KEY>
InChIKey=DHHVAGZRUROJKS-UHFFFAOYSA-N

>  <SMILES>
CC(C)(N)CC1=CC=CC=C1

>  <JCHEM_ACCEPTOR_COUNT>
1

>  <JCHEM_DONOR_COUNT>
1

>  <JCHEM_BASIC_PKA>
10.25

>  <JCHEM_PHYSIOLOGICAL_CHARGE>
1

>  <ALOGPS_LOGP>
2.32

>  <JCHEM_LOGP>
2.08

>  <ALOGPS_LOGS>
-2.3

>  <JCHEM_POLARIZABILITY>
17.87

>  <JCHEM_POLAR_SURFACE_AREA>
26.02

>  <JCHEM_REFRACTIVITY>
48.34

>  <JCHEM_ROTATABLE_BOND_COUNT>
2

>  <ALOGPS_SOLUBILITY>
7.57e-01 g/l

$$$$
192
  Mrv0541 02231214302D          

 23 25  0  0  0  0            999 V2000
    6.8716    0.2479    0.0000 O   0  0  0  0  0  0  0  0  0  0  0  0
    2.9554    0.8291    0.0000 N   0  0  0  0  0  0  0  0  0  0  0  0
    5.7156    1.0879    0.0000 N   0  0  0  0  0  0  0  0  0  0  0  0
    5.5662   -0.3333    0.0000 C   0  0  0  0  0  0  0  0  0  0  0  0
    5.0813    0.3341    0.0000 C   0  0  0  0  0  0  0  0  0  0  0  0
    6.2336   -0.8182    0.0000 C   0  0  0  0  0  0  0  0  0  0  0  0
    4.8988   -0.8182    0.0000 C   0  0  0  0  0  0  0  0  0  0  0  0
    5.9787   -1.6028    0.0000 C   0  0  0  0  0  0  0  0  0  0  0  0
    5.1537   -1.6028    0.0000 C   0  0  0  0  0  0  0  0  0  0  0  0
    4.2608    0.2479    0.0000 C   0  0  0  0  0  0  0  0  0  0  0  0
    6.0512    0.3341    0.0000 C   0  0  0  0  0  0  0  0  0  0  0  0
    3.7759    0.9153    0.0000 C   0  0  0  0  0  0  0  0  0  0  0  0
    7.0714   -0.6266    0.0000 C   0  0  0  0  0  0  0  0  0  0  0  0
    4.0611   -0.6266    0.0000 C   0  0  0  0  0  0  0  0  0  0  0  0
    6.5439   -2.2503    0.0000 C   0  0  0  0  0  0  0  0  0  0  0  0
    4.5887   -2.2503    0.0000 C   0  0  0  0  0  0  0  0  0  0  0  0
    7.6513   -1.2608    0.0000 C   0  0  0  0  0  0  0  0  0  0  0  0
    3.4812   -1.2608    0.0000 C   0  0  0  0  0  0  0  0  0  0  0  0
    7.3858   -2.0781    0.0000 C   0  0  0  0  0  0  0  0  0  0  0  0
    3.7467   -2.0781    0.0000 C   0  0  0  0  0  0  0  0  0  0  0  0
    2.4705    1.4966    0.0000 C   0  0  0  0  0  0  0  0  0  0  0  0
    1.6500    1.4103    0.0000 C   0  0  0  0  0  0  0  0  0  0  0  0
    2.8061    2.2503    0.0000 C   0  0  0  0  0  0  0  0  0  0  0  0
  1 11  2  0  0  0  0
  2 12  1  0  0  0  0
  2 21  1  0  0  0  0
  3 11  1  0  0  0  0
  4  5  1  0  0  0  0
  4  6  1  0  0  0  0
  4  7  1  0  0  0  0
  4 11  1  0  0  0  0
  5 10  1  0  0  0  0
  6  8  1  0  0  0  0
  6 13  2  0  0  0  0
  7  9  1  0  0  0  0
  7 14  2  0  0  0  0
  8  9  1  0  0  0  0
  8 15  2  0  0  0  0
  9 16  2  0  0  0  0
 10 12  1  0  0  0  0
 13 17  1  0  0  0  0
 14 18  1  0  0  0  0
 15 19  1  0  0  0  0
 16 20  1  0  0  0  0
 17 19  2  0  0  0  0
 18 20  2  0  0  0  0
 21 22  1  0  0  0  0
 21 23  1  0  0  0  0
M  END
>  <DRUGBANK_ID>
DB00192

>  <DRUG_GROUPS>
approved

>  <GENERIC_NAME>
Indecainide

>  <SYNONYMS>
9-(3-(Isopropylamino)propyl)-9-fluorenylcarboxamid; 9-(3-(Isopropylamino)propyl))fluorene-9-carboxamide; Indecainida [Spanish]; Indecainidum [Latin]; Ricainid; Ricainide

>  <BRANDS>
Decabid

>  <CHEMICAL_FORMULA>
C20H24N2O

>  <MOLECULAR_WEIGHT>
308.4174

>  <EXACT_MASS>
308.1888634

>  <IUPAC_NAME>
9-{3-[(propan-2-yl)amino]propyl}-9H-fluorene-9-carboxamide

>  <INCHI_IDENTIFIER>
InChI=1S/C20H24N2O/c1-14(2)22-13-7-12-20(19(21)23)17-10-5-3-8-15(17)16-9-4-6-11-18(16)20/h3-6,8-11,14,22H,7,12-13H2,1-2H3,(H2,21,23)

>  <INCHI_KEY>
InChIKey=UCEWGESNIULAGX-UHFFFAOYSA-N

>  <SMILES>
CC(C)NCCCC1(C(N)=O)C2=CC=CC=C2C2=CC=CC=C12

>  <JCHEM_ACCEPTOR_COUNT>
2

>  <JCHEM_DONOR_COUNT>
2

>  <JCHEM_ACIDIC_PKA>
16.51

>  <JCHEM_BASIC_PKA>
10.4

>  <JCHEM_PHYSIOLOGICAL_CHARGE>
1

>  <ALOGPS_LOGP>
3.24

>  <JCHEM_LOGP>
3.26

>  <ALOGPS_LOGS>
-5.5

>  <JCHEM_POLARIZABILITY>
35.56

>  <JCHEM_POLAR_SURFACE_AREA>
55.12

>  <JCHEM_REFRACTIVITY>
94.05

>  <JCHEM_ROTATABLE_BOND_COUNT>
6

>  <ALOGPS_SOLUBILITY>
8.96e-04 g/l

$$$$
193
  Mrv0541 02231214302D          

 19 20  0  0  1  0            999 V2000
    4.0955    0.4678    0.0000 O   0  0  0  0  0  0  0  0  0  0  0  0
    6.9830    1.1823    0.0000 O   0  0  0  0  0  0  0  0  0  0  0  0
    2.3645   -0.6592    0.0000 N   0  0  0  0  0  0  0  0  0  0  0  0
    3.7935   -0.6592    0.0000 C   0  0  2  0  0  0  0  0  0  0  0  0
    4.5080   -0.2467    0.0000 C   0  0  1  0  0  0  0  0  0  0  0  0
    3.7935   -1.4842    0.0000 C   0  0  0  0  0  0  0  0  0  0  0  0
    5.2224   -0.6592    0.0000 C   0  0  0  0  0  0  0  0  0  0  0  0
    4.5080   -1.8967    0.0000 C   0  0  0  0  0  0  0  0  0  0  0  0
    5.2224   -1.4842    0.0000 C   0  0  0  0  0  0  0  0  0  0  0  0
    3.0791   -0.2467    0.0000 C   0  0  0  0  0  0  0  0  0  0  0  0
    4.9205    0.4678    0.0000 C   0  0  0  0  0  0  0  0  0  0  0  0
    5.7455    0.4678    0.0000 C   0  0  0  0  0  0  0  0  0  0  0  0
    4.5080    1.1823    0.0000 C   0  0  0  0  0  0  0  0  0  0  0  0
    1.6500   -0.2467    0.0000 C   0  0  0  0  0  0  0  0  0  0  0  0
    2.3645   -1.4842    0.0000 C   0  0  0  0  0  0  0  0  0  0  0  0
    6.1580    1.1823    0.0000 C   0  0  0  0  0  0  0  0  0  0  0  0
    4.9205    1.8967    0.0000 C   0  0  0  0  0  0  0  0  0  0  0  0
    5.7455    1.8967    0.0000 C   0  0  0  0  0  0  0  0  0  0  0  0
    7.3955    1.8967    0.0000 C   0  0  0  0  0  0  0  0  0  0  0  0
  5  1  1  6  0  0  0
  2 16  1  0  0  0  0
  2 19  1  0  0  0  0
  3 10  1  0  0  0  0
  3 14  1  0  0  0  0
  3 15  1  0  0  0  0
  4  5  1  0  0  0  0
  4  6  1  0  0  0  0
  4 10  1  6  0  0  0
  5  7  1  0  0  0  0
  5 11  1  0  0  0  0
  6  8  1  0  0  0  0
  7  9  1  0  0  0  0
  8  9  1  0  0  0  0
 11 12  2  0  0  0  0
 11 13  1  0  0  0  0
 12 16  1  0  0  0  0
 13 17  2  0  0  0  0
 16 18  2  0  0  0  0
 17 18  1  0  0  0  0
M  END
>  <DRUGBANK_ID>
DB00193

>  <DRUG_GROUPS>
approved; investigational

>  <GENERIC_NAME>
Tramadol

>  <SYNONYMS>
Tramadol HCl; Tramadol hydrochloride; Tramadolum [INN-Latin]; Tramodol Hcl

>  <BRANDS>
Crispin; Ralivia ER; Ralivia Flashtab; Tramadol HCl BP/EP; Tramal; Tridural; Ultram; Ultram ER

>  <CHEMICAL_FORMULA>
C16H25NO2

>  <MOLECULAR_WEIGHT>
263.3752

>  <EXACT_MASS>
263.188529049

>  <IUPAC_NAME>
(1R,2R)-2-[(dimethylamino)methyl]-1-(3-methoxyphenyl)cyclohexan-1-ol

>  <INCHI_IDENTIFIER>
InChI=1S/C16H25NO2/c1-17(2)12-14-7-4-5-10-16(14,18)13-8-6-9-15(11-13)19-3/h6,8-9,11,14,18H,4-5,7,10,12H2,1-3H3/t14-,16+/m1/s1

>  <INCHI_KEY>
InChIKey=TVYLLZQTGLZFBW-ZBFHGGJFSA-N

>  <SMILES>
COC1=CC=CC(=C1)[C@@]1(O)CCCC[C@@H]1CN(C)C

>  <JCHEM_ACCEPTOR_COUNT>
3

>  <JCHEM_DONOR_COUNT>
1

>  <JCHEM_ACIDIC_PKA>
13.8

>  <JCHEM_BASIC_PKA>
9.23

>  <JCHEM_PHYSIOLOGICAL_CHARGE>
1

>  <ALOGPS_LOGP>
2.71

>  <JCHEM_LOGP>
2.45

>  <ALOGPS_LOGS>
-2.5

>  <JCHEM_POLARIZABILITY>
30.45

>  <JCHEM_POLAR_SURFACE_AREA>
32.7

>  <JCHEM_REFRACTIVITY>
78.27

>  <JCHEM_ROTATABLE_BOND_COUNT>
4

>  <ALOGPS_SOLUBILITY>
7.50e-01 g/l

$$$$
32326
  Mrv0541 02231214302D          

 19 21  0  0  1  0            999 V2000
    3.6940    3.6075    0.0000 O   0  0  0  0  0  0  0  0  0  0  0  0
    1.6001    4.0236    0.0000 O   0  0  0  0  0  0  0  0  0  0  0  0
    2.6576    5.4739    0.0000 O   0  0  0  0  0  0  0  0  0  0  0  0
    5.1168    4.5794    0.0000 O   0  0  0  0  0  0  0  0  0  0  0  0
    2.6526    2.5697    0.0000 N   0  0  0  0  0  0  0  0  0  0  0  0
    2.6526    1.2419    0.0000 N   0  0  0  0  0  0  0  0  0  0  0  0
    1.1575    2.7308    0.0000 N   0  0  0  0  0  0  0  0  0  0  0  0
    0.4430    1.4933    0.0000 N   0  0  0  0  0  0  0  0  0  0  0  0
    1.1575    0.2558    0.0000 N   0  0  0  0  0  0  0  0  0  0  0  0
    2.4251    4.0222    0.0000 C   0  0  2  0  0  0  0  0  0  0  0  0
    2.9089    3.3538    0.0000 C   0  0  1  0  0  0  0  0  0  0  0  0
    2.9112    4.6888    0.0000 C   0  0  1  0  0  0  0  0  0  0  0  0
    3.6954    4.4325    0.0000 C   0  0  1  0  0  0  0  0  0  0  0  0
    4.3637    4.9163    0.0000 C   0  0  0  0  0  0  0  0  0  0  0  0
    1.8720    2.3183    0.0000 C   0  0  0  0  0  0  0  0  0  0  0  0
    3.1341    1.9058    0.0000 C   0  0  0  0  0  0  0  0  0  0  0  0
    1.8720    1.4933    0.0000 C   0  0  0  0  0  0  0  0  0  0  0  0
    1.1575    1.0808    0.0000 C   0  0  0  0  0  0  0  0  0  0  0  0
    0.4430    2.3183    0.0000 C   0  0  0  0  0  0  0  0  0  0  0  0
  1 11  1  0  0  0  0
  1 13  1  0  0  0  0
 10  2  1  1  0  0  0
 12  3  1  6  0  0  0
  4 14  1  0  0  0  0
 11  5  1  1  0  0  0
  5 15  1  0  0  0  0
  5 16  1  0  0  0  0
  6 16  2  0  0  0  0
  6 17  1  0  0  0  0
  7 15  1  0  0  0  0
  7 19  2  0  0  0  0
  8 18  2  0  0  0  0
  8 19  1  0  0  0  0
  9 18  1  0  0  0  0
 10 11  1  0  0  0  0
 10 12  1  0  0  0  0
 12 13  1  0  0  0  0
 13 14  1  1  0  0  0
 15 17  2  0  0  0  0
 17 18  1  0  0  0  0
M  END
>  <DRUGBANK_ID>
DB00194

>  <DRUG_GROUPS>
approved

>  <GENERIC_NAME>
Vidarabine

>  <SYNONYMS>
9-beta-D-arabinofuranosyl-adenine; Adenine Arabinoside; Ara-A; Ara-Atp; Araadenosine; Arabinoside Adenine; Arabinosyl Adenine; Arabinosyladenine

>  <BRANDS>
Arasena-A; Spongoadenosine; Vidarabin; Vira-A

>  <CHEMICAL_FORMULA>
C10H13N5O4

>  <MOLECULAR_WEIGHT>
267.2413

>  <EXACT_MASS>
267.096753929

>  <IUPAC_NAME>
(2R,3S,4S,5R)-2-(6-amino-9H-purin-9-yl)-5-(hydroxymethyl)oxolane-3,4-diol

>  <INCHI_IDENTIFIER>
InChI=1S/C10H13N5O4/c11-8-5-9(13-2-12-8)15(3-14-5)10-7(18)6(17)4(1-16)19-10/h2-4,6-7,10,16-18H,1H2,(H2,11,12,13)/t4-,6-,7+,10-/m1/s1

>  <INCHI_KEY>
InChIKey=OIRDTQYFTABQOQ-UHTZMRCNSA-N

>  <SMILES>
NC1=NC=NC2=C1N=CN2[C@@H]1O[C@H](CO)[C@@H](O)[C@@H]1O

>  <JCHEM_ACCEPTOR_COUNT>
8

>  <JCHEM_DONOR_COUNT>
4

>  <JCHEM_ACIDIC_PKA>
12.45

>  <JCHEM_BASIC_PKA>
4.99

>  <JCHEM_PHYSIOLOGICAL_CHARGE>
0

>  <ALOGPS_LOGP>
-1.2

>  <JCHEM_LOGP>
-2.1

>  <ALOGPS_LOGS>
-1.3

>  <JCHEM_POLARIZABILITY>
24.49

>  <JCHEM_POLAR_SURFACE_AREA>
139.54

>  <JCHEM_REFRACTIVITY>
63.2

>  <JCHEM_ROTATABLE_BOND_COUNT>
2

>  <ALOGPS_SOLUBILITY>
1.40e+01 g/l

$$$$
195
  Mrv0541 02231214302D          

 22 23  0  0  1  0            999 V2000
    2.7770   -3.1491    0.0000 O   0  0  0  0  0  0  0  0  0  0  0  0
    3.4916    1.3885    0.0000 O   0  0  0  0  0  0  0  0  0  0  0  0
    3.4916    3.0385    0.0000 O   0  0  0  0  0  0  0  0  0  0  0  0
    4.9205    3.8636    0.0000 N   0  0  0  0  0  0  0  0  0  0  0  0
    2.0625   -4.3866    0.0000 C   0  0  0  0  0  0  0  0  0  0  0  0
    2.4751   -5.1011    0.0000 C   0  0  0  0  0  0  0  0  0  0  0  0
    1.6500   -5.1011    0.0000 C   0  0  0  0  0  0  0  0  0  0  0  0
    2.0625   -3.5616    0.0000 C   0  0  0  0  0  0  0  0  0  0  0  0
    2.7770   -2.3241    0.0000 C   0  0  0  0  0  0  0  0  0  0  0  0
    3.4916   -1.9116    0.0000 C   0  0  0  0  0  0  0  0  0  0  0  0
    3.4916   -1.0865    0.0000 C   0  0  0  0  0  0  0  0  0  0  0  0
    4.2060    2.6260    0.0000 C   0  0  0  0  0  0  0  0  0  0  0  0
    4.9205    3.0385    0.0000 C   0  0  0  0  0  0  0  0  0  0  0  0
    5.6350    4.2761    0.0000 C   0  0  0  0  0  0  0  0  0  0  0  0
    4.2060    1.8010    0.0000 C   0  0  0  0  0  0  0  0  0  0  0  0
    2.7770   -0.6740    0.0000 C   0  0  0  0  0  0  0  0  0  0  0  0
    4.2060   -0.6740    0.0000 C   0  0  0  0  0  0  0  0  0  0  0  0
    3.4916    0.5635    0.0000 C   0  0  0  0  0  0  0  0  0  0  0  0
    6.3495    3.8636    0.0000 C   0  0  0  0  0  0  0  0  0  0  0  0
    5.6350    5.1011    0.0000 C   0  0  0  0  0  0  0  0  0  0  0  0
    2.7770    0.1510    0.0000 C   0  0  0  0  0  0  0  0  0  0  0  0
    4.2060    0.1510    0.0000 C   0  0  0  0  0  0  0  0  0  0  0  0
  1  8  1  0  0  0  0
  1  9  1  0  0  0  0
  2 15  1  0  0  0  0
  2 18  1  0  0  0  0
  3 12  1  0  0  0  0
  4 13  1  0  0  0  0
  4 14  1  0  0  0  0
  5  6  1  0  0  0  0
  5  7  1  0  0  0  0
  5  8  1  0  0  0  0
  6  7  1  0  0  0  0
  9 10  1  0  0  0  0
 10 11  1  0  0  0  0
 11 16  2  0  0  0  0
 11 17  1  0  0  0  0
 12 13  1  0  0  0  0
 12 15  1  0  0  0  0
 14 19  1  0  0  0  0
 14 20  1  0  0  0  0
 16 21  1  0  0  0  0
 17 22  2  0  0  0  0
 18 21  2  0  0  0  0
 18 22  1  0  0  0  0
M  END
>  <DRUGBANK_ID>
DB00195

>  <DRUG_GROUPS>
approved

>  <GENERIC_NAME>
Betaxolol

>  <SYNONYMS>
Betaxolol HCL; Betaxololum [INN-Latin]

>  <BRANDS>
Betaxon; Betoptic; Betoptic S; Kerlone

>  <CHEMICAL_FORMULA>
C18H29NO3

>  <MOLECULAR_WEIGHT>
307.4278

>  <EXACT_MASS>
307.214743799

>  <IUPAC_NAME>
(3-{4-[2-(cyclopropylmethoxy)ethyl]phenoxy}-2-hydroxypropyl)(propan-2-yl)amine

>  <INCHI_IDENTIFIER>
InChI=1S/C18H29NO3/c1-14(2)19-11-17(20)13-22-18-7-5-15(6-8-18)9-10-21-12-16-3-4-16/h5-8,14,16-17,19-20H,3-4,9-13H2,1-2H3

>  <INCHI_KEY>
InChIKey=NWIUTZDMDHAVTP-UHFFFAOYSA-N

>  <SMILES>
CC(C)NCC(O)COC1=CC=C(CCOCC2CC2)C=C1

>  <JCHEM_ACCEPTOR_COUNT>
4

>  <JCHEM_DONOR_COUNT>
2

>  <JCHEM_ACIDIC_PKA>
14.09

>  <JCHEM_BASIC_PKA>
9.67

>  <JCHEM_PHYSIOLOGICAL_CHARGE>
1

>  <ALOGPS_LOGP>
3

>  <JCHEM_LOGP>
2.54

>  <ALOGPS_LOGS>
-4

>  <JCHEM_POLARIZABILITY>
37.05

>  <JCHEM_POLAR_SURFACE_AREA>
50.72

>  <JCHEM_REFRACTIVITY>
88.64

>  <JCHEM_ROTATABLE_BOND_COUNT>
11

>  <ALOGPS_SOLUBILITY>
2.98e-02 g/l

$$$$
196
  Mrv0541 02231214302D          

 22 24  0  0  0  0            999 V2000
    1.6500   -0.2897    0.0000 F   0  0  0  0  0  0  0  0  0  0  0  0
    3.0790   -2.7647    0.0000 F   0  0  0  0  0  0  0  0  0  0  0  0
    2.2540    0.5353    0.0000 O   0  0  0  0  0  0  0  0  0  0  0  0
    3.7934    1.7728    0.0000 N   0  0  0  0  0  0  0  0  0  0  0  0
    4.6184    0.1228    0.0000 N   0  0  0  0  0  0  0  0  0  0  0  0
    4.5471    1.4371    0.0000 N   0  0  0  0  0  0  0  0  0  0  0  0
    5.3721    0.4583    0.0000 N   0  0  0  0  0  0  0  0  0  0  0  0
    4.6867    2.7647    0.0000 N   0  0  0  0  0  0  0  0  0  0  0  0
    5.5117   -0.8693    0.0000 N   0  0  0  0  0  0  0  0  0  0  0  0
    3.0790    0.5353    0.0000 C   0  0  0  0  0  0  0  0  0  0  0  0
    3.0790    1.3603    0.0000 C   0  0  0  0  0  0  0  0  0  0  0  0
    3.9040    0.5353    0.0000 C   0  0  0  0  0  0  0  0  0  0  0  0
    3.0790   -0.2897    0.0000 C   0  0  0  0  0  0  0  0  0  0  0  0
    2.3644   -0.7022    0.0000 C   0  0  0  0  0  0  0  0  0  0  0  0
    3.7934   -0.7022    0.0000 C   0  0  0  0  0  0  0  0  0  0  0  0
    2.3644   -1.5272    0.0000 C   0  0  0  0  0  0  0  0  0  0  0  0
    3.7934   -1.5272    0.0000 C   0  0  0  0  0  0  0  0  0  0  0  0
    3.8796    2.5932    0.0000 C   0  0  0  0  0  0  0  0  0  0  0  0
    4.7046   -0.6977    0.0000 C   0  0  0  0  0  0  0  0  0  0  0  0
    3.0790   -1.9397    0.0000 C   0  0  0  0  0  0  0  0  0  0  0  0
    5.0992    2.0503    0.0000 C   0  0  0  0  0  0  0  0  0  0  0  0
    5.9242   -0.1548    0.0000 C   0  0  0  0  0  0  0  0  0  0  0  0
  1 14  1  0  0  0  0
  2 20  1  0  0  0  0
  3 10  1  0  0  0  0
  4  6  1  0  0  0  0
  4 11  1  0  0  0  0
  4 18  1  0  0  0  0
  5  7  1  0  0  0  0
  5 12  1  0  0  0  0
  5 19  1  0  0  0  0
  6 21  2  0  0  0  0
  7 22  2  0  0  0  0
  8 18  2  0  0  0  0
  8 21  1  0  0  0  0
  9 19  2  0  0  0  0
  9 22  1  0  0  0  0
 10 11  1  0  0  0  0
 10 12  1  0  0  0  0
 10 13  1  0  0  0  0
 13 14  2  0  0  0  0
 13 15  1  0  0  0  0
 14 16  1  0  0  0  0
 15 17  2  0  0  0  0
 16 20  2  0  0  0  0
 17 20  1  0  0  0  0
M  END
>  <DRUGBANK_ID>
DB00196

>  <DRUG_GROUPS>
approved

>  <GENERIC_NAME>
Fluconazole

>  <BRANDS>
Biocanol; Biozolene; Diflucan; Elazor; Flucazol; Flucostat; Flukezol; Flunizol; Pritenzol; Triflucan

>  <CHEMICAL_FORMULA>
C13H12F2N6O

>  <MOLECULAR_WEIGHT>
306.2708

>  <EXACT_MASS>
306.104065446

>  <IUPAC_NAME>
2-(2,4-difluorophenyl)-1,3-bis(1H-1,2,4-triazol-1-yl)propan-2-ol

>  <INCHI_IDENTIFIER>
InChI=1S/C13H12F2N6O/c14-10-1-2-11(12(15)3-10)13(22,4-20-8-16-6-18-20)5-21-9-17-7-19-21/h1-3,6-9,22H,4-5H2

>  <INCHI_KEY>
InChIKey=RFHAOTPXVQNOHP-UHFFFAOYSA-N

>  <SMILES>
OC(CN1C=NC=N1)(CN1C=NC=N1)C1=C(F)C=C(F)C=C1

>  <JCHEM_ACCEPTOR_COUNT>
5

>  <JCHEM_DONOR_COUNT>
1

>  <JCHEM_ACIDIC_PKA>
12.71

>  <JCHEM_BASIC_PKA>
2.56

>  <JCHEM_PHYSIOLOGICAL_CHARGE>
0

>  <ALOGPS_LOGP>
0.58

>  <JCHEM_LOGP>
0.56

>  <ALOGPS_LOGS>
-2.3

>  <JCHEM_POLARIZABILITY>
26.52

>  <JCHEM_POLAR_SURFACE_AREA>
81.65

>  <JCHEM_REFRACTIVITY>
97.2

>  <JCHEM_ROTATABLE_BOND_COUNT>
5

>  <ALOGPS_SOLUBILITY>
1.39e+00 g/l

$$$$
65028
  Mrv0541 02231214302D          

 22 22  0  0  1  0            999 V2000
    3.7935    1.0313    0.0000 O   0  0  0  0  0  0  0  0  0  0  0  0
    4.5080   -1.8563    0.0000 O   0  0  0  0  0  0  0  0  0  0  0  0
    5.9370   -1.8563    0.0000 O   0  0  0  0  0  0  0  0  0  0  0  0
    3.7935    1.8563    0.0000 O   0  0  0  0  0  0  0  0  0  0  0  0
    5.2224    1.8563    0.0000 N   0  0  0  0  0  0  0  0  0  0  0  0
    6.6515    1.0313    0.0000 N   0  0  0  0  0  0  0  0  0  0  0  0
    5.2224    1.0313    0.0000 C   0  0  2  0  0  0  0  0  0  0  0  0
    5.9370    0.6188    0.0000 C   0  0  2  0  0  0  0  0  0  0  0  0
    4.5080    0.6188    0.0000 C   0  0  1  0  0  0  0  0  0  0  0  0
    5.9370   -0.2063    0.0000 C   0  0  0  0  0  0  0  0  0  0  0  0
    4.5080   -0.2063    0.0000 C   0  0  0  0  0  0  0  0  0  0  0  0
    5.2224   -0.6188    0.0000 C   0  0  0  0  0  0  0  0  0  0  0  0
    3.0790    0.6188    0.0000 C   0  0  0  0  0  0  0  0  0  0  0  0
    2.3645    1.0313    0.0000 C   0  0  0  0  0  0  0  0  0  0  0  0
    3.0790   -0.2063    0.0000 C   0  0  0  0  0  0  0  0  0  0  0  0
    5.2224   -1.4438    0.0000 C   0  0  0  0  0  0  0  0  0  0  0  0
    4.5080    2.2688    0.0000 C   0  0  0  0  0  0  0  0  0  0  0  0
    1.6500    0.6188    0.0000 C   0  0  0  0  0  0  0  0  0  0  0  0
    2.3645   -0.6188    0.0000 C   0  0  0  0  0  0  0  0  0  0  0  0
    4.5080    3.0938    0.0000 C   0  0  0  0  0  0  0  0  0  0  0  0
    4.5080   -2.6813    0.0000 C   0  0  0  0  0  0  0  0  0  0  0  0
    3.7935   -3.0938    0.0000 C   0  0  0  0  0  0  0  0  0  0  0  0
  9  1  1  1  0  0  0
  1 13  1  0  0  0  0
  2 16  1  0  0  0  0
  2 21  1  0  0  0  0
  3 16  2  0  0  0  0
  4 17  2  0  0  0  0
  7  5  1  6  0  0  0
  5 17  1  0  0  0  0
  8  6  1  1  0  0  0
  7  8  1  0  0  0  0
  7  9  1  0  0  0  0
  8 10  1  0  0  0  0
  9 11  1  0  0  0  0
 10 12  1  0  0  0  0
 11 12  2  0  0  0  0
 12 16  1  0  0  0  0
 13 14  1  0  0  0  0
 13 15  1  0  0  0  0
 14 18  1  0  0  0  0
 15 19  1  0  0  0  0
 17 20  1  0  0  0  0
 21 22  1  0  0  0  0
M  END
>  <DRUGBANK_ID>
DB00198

>  <DRUG_GROUPS>
approved

>  <GENERIC_NAME>
Oseltamivir

>  <SYNONYMS>
Oseltamivir phosphate

>  <BRANDS>
Tamiflu

>  <CHEMICAL_FORMULA>
C16H28N2O4

>  <MOLECULAR_WEIGHT>
312.4045

>  <EXACT_MASS>
312.204907394

>  <IUPAC_NAME>
ethyl (3R,4R,5S)-5-amino-4-acetamido-3-(pentan-3-yloxy)cyclohex-1-ene-1-carboxylate

>  <INCHI_IDENTIFIER>
InChI=1S/C16H28N2O4/c1-5-12(6-2)22-14-9-11(16(20)21-7-3)8-13(17)15(14)18-10(4)19/h9,12-15H,5-8,17H2,1-4H3,(H,18,19)/t13-,14+,15+/m0/s1

>  <INCHI_KEY>
InChIKey=VSZGPKBBMSAYNT-RRFJBIMHSA-N

>  <SMILES>
CCOC(=O)C1=C[C@@H](OC(CC)CC)[C@H](NC(C)=O)[C@@H](N)C1

>  <JCHEM_ACCEPTOR_COUNT>
4

>  <JCHEM_DONOR_COUNT>
2

>  <JCHEM_ACIDIC_PKA>
14.03

>  <JCHEM_BASIC_PKA>
9.31

>  <JCHEM_PHYSIOLOGICAL_CHARGE>
1

>  <ALOGPS_LOGP>
1.3

>  <JCHEM_LOGP>
1.16

>  <ALOGPS_LOGS>
-2.7

>  <JCHEM_POLARIZABILITY>
34.65

>  <JCHEM_POLAR_SURFACE_AREA>
90.65

>  <JCHEM_REFRACTIVITY>
84.2

>  <JCHEM_ROTATABLE_BOND_COUNT>
8

>  <ALOGPS_SOLUBILITY>
6.86e-01 g/l

$$$$
12560
  Mrv0541 02231214302D          

 51 53  0  0  1  0            999 V2000
    4.5376   -0.9760    0.0000 O   0  0  0  0  0  0  0  0  0  0  0  0
    4.5376    0.4529    0.0000 O   0  0  0  0  0  0  0  0  0  0  0  0
    5.9887   -2.4873    0.0000 O   0  0  0  0  0  0  0  0  0  0  0  0
    4.5376   -2.4050    0.0000 O   0  0  0  0  0  0  0  0  0  0  0  0
    3.3001    1.1675    0.0000 O   0  0  0  0  0  0  0  0  0  0  0  0
    7.0127    1.8819    0.0000 O   0  0  0  0  0  0  0  0  0  0  0  0
    4.1251    3.4214    0.0000 O   0  0  0  0  0  0  0  0  0  0  0  0
    2.8876   -0.9760    0.0000 O   0  0  0  0  0  0  0  0  0  0  0  0
    2.8876    3.3109    0.0000 O   0  0  0  0  0  0  0  0  0  0  0  0
    9.0471    1.3810    0.0000 O   0  0  0  0  0  0  0  0  0  0  0  0
    7.2057    0.9833    0.0000 O   0  0  0  0  0  0  0  0  0  0  0  0
    8.2502   -1.6905    0.0000 O   0  0  0  0  0  0  0  0  0  0  0  0
    7.0127    0.4529    0.0000 O   0  0  0  0  0  0  0  0  0  0  0  0
    2.0625   -2.4050    0.0000 N   0  0  0  0  0  0  0  0  0  0  0  0
    5.3626   -0.9760    0.0000 C   0  0  2  0  0  0  0  0  0  0  0  0
    5.7751   -0.2615    0.0000 C   0  0  2  0  0  0  0  0  0  0  0  0
    5.7751   -1.6905    0.0000 C   0  0  1  0  0  0  0  0  0  0  0  0
    5.3626    0.4529    0.0000 C   0  0  1  0  0  0  0  0  0  0  0  0
    6.6001   -1.6905    0.0000 C   0  0  0  0  0  0  0  0  0  0  0  0
    5.7751    1.1675    0.0000 C   0  0  2  0  0  0  0  0  0  0  0  0
    7.0127   -0.9760    0.0000 C   0  0  2  0  0  0  0  0  0  0  0  0
    4.1251   -1.6905    0.0000 C   0  0  2  0  0  0  0  0  0  0  0  0
    4.1251    1.1675    0.0000 C   0  0  2  0  0  0  0  0  0  0  0  0
    4.1251    2.5964    0.0000 C   0  0  2  0  0  0  0  0  0  0  0  0
    6.6001   -0.2615    0.0000 C   0  0  0  0  0  0  0  0  0  0  0  0
    3.3001   -1.6905    0.0000 C   0  0  1  0  0  0  0  0  0  0  0  0
    2.8876   -2.4050    0.0000 C   0  0  2  0  0  0  0  0  0  0  0  0
    4.5376    1.8819    0.0000 C   0  0  0  0  0  0  0  0  0  0  0  0
    5.1918   -2.2739    0.0000 C   0  0  0  0  0  0  0  0  0  0  0  0
    3.3001    2.5964    0.0000 C   0  0  2  0  0  0  0  0  0  0  0  0
    8.2502   -0.2615    0.0000 C   0  0  2  0  0  0  0  0  0  0  0  0
    8.2502    1.1675    0.0000 C   0  0  1  0  0  0  0  0  0  0  0  0
    3.3001   -3.1195    0.0000 C   0  0  0  0  0  0  0  0  0  0  0  0
    7.8377    0.4529    0.0000 C   0  0  2  0  0  0  0  0  0  0  0  0
    2.8876    1.8819    0.0000 C   0  0  2  0  0  0  0  0  0  0  0  0
    7.8377   -0.9760    0.0000 C   0  0  0  0  0  0  0  0  0  0  0  0
    4.1251   -3.1195    0.0000 C   0  0  1  0  0  0  0  0  0  0  0  0
    7.8377    1.8819    0.0000 C   0  0  1  0  0  0  0  0  0  0  0  0
    6.6001    1.1675    0.0000 C   0  0  0  0  0  0  0  0  0  0  0  0
    5.3626    1.8819    0.0000 C   0  0  0  0  0  0  0  0  0  0  0  0
    6.1876   -0.9760    0.0000 C   0  0  0  0  0  0  0  0  0  0  0  0
    4.8396    3.0089    0.0000 C   0  0  0  0  0  0  0  0  0  0  0  0
    9.0752   -0.2615    0.0000 C   0  0  0  0  0  0  0  0  0  0  0  0
    8.9260    0.6943    0.0000 C   0  0  0  0  0  0  0  0  0  0  0  0
    8.2502    2.5964    0.0000 C   0  0  0  0  0  0  0  0  0  0  0  0
    2.0625    1.8819    0.0000 C   0  0  0  0  0  0  0  0  0  0  0  0
    4.5376   -3.8339    0.0000 C   0  0  0  0  0  0  0  0  0  0  0  0
    1.6500   -3.1195    0.0000 C   0  0  0  0  0  0  0  0  0  0  0  0
    1.6500   -1.6905    0.0000 C   0  0  0  0  0  0  0  0  0  0  0  0
    7.8377    3.3109    0.0000 C   0  0  0  0  0  0  0  0  0  0  0  0
    4.8396    3.8339    0.0000 C   0  0  0  0  0  0  0  0  0  0  0  0
 15  1  1  6  0  0  0
 22  1  1  6  0  0  0
 18  2  1  6  0  0  0
 23  2  1  6  0  0  0
 17  3  1  1  0  0  0
  4 22  1  0  0  0  0
  4 37  1  0  0  0  0
  5 23  1  0  0  0  0
  5 35  1  0  0  0  0
  6 38  1  0  0  0  0
  6 39  1  0  0  0  0
 24  7  1  6  0  0  0
  7 51  1  0  0  0  0
 26  8  1  1  0  0  0
 30  9  1  6  0  0  0
 32 10  1  1  0  0  0
 34 11  1  1  0  0  0
 12 36  2  0  0  0  0
 13 39  2  0  0  0  0
 27 14  1  6  0  0  0
 14 48  1  0  0  0  0
 14 49  1  0  0  0  0
 15 16  1  0  0  0  0
 15 17  1  0  0  0  0
 16 18  1  0  0  0  0
 16 25  1  6  0  0  0
 17 19  1  0  0  0  0
 17 29  1  0  0  0  0
 18 20  1  0  0  0  0
 19 21  1  0  0  0  0
 20 39  1  0  0  0  0
 20 40  1  1  0  0  0
 21 36  1  0  0  0  0
 21 41  1  1  0  0  0
 22 26  1  0  0  0  0
 23 28  1  0  0  0  0
 24 28  1  0  0  0  0
 24 30  1  0  0  0  0
 24 42  1  0  0  0  0
 26 27  1  0  0  0  0
 27 33  1  0  0  0  0
 30 35  1  0  0  0  0
 31 34  1  0  0  0  0
 31 36  1  0  0  0  0
 31 43  1  1  0  0  0
 32 34  1  0  0  0  0
 32 38  1  0  0  0  0
 32 44  1  0  0  0  0
 33 37  1  0  0  0  0
 35 46  1  1  0  0  0
 37 47  1  6  0  0  0
 38 45  1  6  0  0  0
 45 50  1  0  0  0  0
M  END
>  <DRUGBANK_ID>
DB00199

>  <DRUG_GROUPS>
approved

>  <GENERIC_NAME>
Erythromycin

>  <SYNONYMS>
EM; Erythrocin Stearate; Erythromycin ethylsuccinate; Erythromycin glucoheptonate; Erythromycin lactobionate; Erythromycin oxime; Erythromycin Stearate

>  <BRANDS>
Abboticin; Abomacetin; Ak-mycin; Akne-Mycin; Aknin; Benzamycin; Benzamycin Pak; Bristamycin; Dotycin; Dumotrycin; E-Base; E-Glades; E-Mycin; E-Solve 2; Emgel; EMU; Eritrocina; Ermycin; Ery-Sol; Ery-Tab; Eryc; Eryc 125; Eryc Sprinkles; Erycen; Erycette; Erycin; Erycinum; Eryderm; Erygel; Erymax; Erypar; Erythra-Derm; Erythro; Erythro-Statin; Erythrogran; Erythroguent; Erythromast 36; Erythromid; Erythromycin A; Erythromycin B; Ethril 250; Ilocaps; Ilosone; Ilotycin; Ilotycin Gluceptate; IndermRetcin; Kesso-Mycin; Mephamycin; Pantomicina; Pfizer-e; Propiocine; R-P Mycin; Robimycin; Sansac; Stiemycin; Taimoxin-F; Theramycin Z; Torlamicina; Wemid; Wyamycin S

>  <CHEMICAL_FORMULA>
C37H67NO13

>  <MOLECULAR_WEIGHT>
733.9268

>  <EXACT_MASS>
733.461241235

>  <IUPAC_NAME>
(3R,4S,5S,6R,7R,9R,11R,12R,13S,14R)-6-{[(2S,3R,4S,6R)-4-(dimethylamino)-3-hydroxy-6-methyloxan-2-yl]oxy}-14-ethyl-7,12,13-trihydroxy-4-{[(2R,4R,5S,6S)-5-hydroxy-4-methoxy-4,6-dimethyloxan-2-yl]oxy}-3,5,7,9,11,13-hexamethyl-1-oxacyclotetradecane-2,10-dione

>  <INCHI_IDENTIFIER>
InChI=1S/C37H67NO13/c1-14-25-37(10,45)30(41)20(4)27(39)18(2)16-35(8,44)32(51-34-28(40)24(38(11)12)15-19(3)47-34)21(5)29(22(6)33(43)49-25)50-26-17-36(9,46-13)31(42)23(7)48-26/h18-26,28-32,34,40-42,44-45H,14-17H2,1-13H3/t18-,19-,20+,21+,22-,23+,24+,25-,26+,28-,29+,30-,31+,32-,34+,35-,36-,37-/m1/s1

>  <INCHI_KEY>
InChIKey=ULGZDMOVFRHVEP-RWJQBGPGSA-N

>  <SMILES>
CC[C@H]1OC(=O)[C@H](C)[C@@H](O[C@H]2C[C@@](C)(OC)[C@@H](O)[C@H](C)O2)[C@H](C)[C@@H](O[C@@H]2O[C@H](C)C[C@@H]([C@H]2O)N(C)C)[C@](C)(O)C[C@@H](C)C(=O)[C@H](C)[C@@H](O)[C@]1(C)O

>  <JCHEM_ACCEPTOR_COUNT>
13

>  <JCHEM_DONOR_COUNT>
5

>  <JCHEM_ACIDIC_PKA>
12.44

>  <JCHEM_BASIC_PKA>
8.38

>  <JCHEM_PHYSIOLOGICAL_CHARGE>
1

>  <ALOGPS_LOGP>
2.37

>  <JCHEM_LOGP>
2.6

>  <ALOGPS_LOGS>
-3.2

>  <JCHEM_POLARIZABILITY>
78.21

>  <JCHEM_POLAR_SURFACE_AREA>
193.91

>  <JCHEM_REFRACTIVITY>
186.04

>  <JCHEM_ROTATABLE_BOND_COUNT>
7

>  <ALOGPS_SOLUBILITY>
4.59e-01 g/l

$$$$

  Mrv0541 04191212102D          

 94105  0  0  1  0            999 V2000
   -0.6472   -1.5655    0.0000 C   0  0  0  0  0  0  0  0  0  0  0  0
   -0.7591   -0.7620    0.0000 N   0  0  0  0  0  0  0  0  0  0  0  0
   -0.7591    0.9361    0.0000 N   0  0  0  0  0  0  0  0  0  0  0  0
   -0.6472    1.7396    0.0000 C   0  0  0  0  0  0  0  0  0  0  0  0
   -1.3596    2.1164    0.0000 C   0  0  1  0  0  0  0  0  0  0  0  0
   -1.4780    2.9329    0.0000 C   0  0  0  0  0  0  0  0  0  0  0  0
   -0.8302    3.4437    0.0000 C   0  0  0  0  0  0  0  0  0  0  0  0
   -0.9487    4.2601    0.0000 C   0  0  0  0  0  0  0  0  0  0  0  0
   -1.7149    4.5657    0.0000 O   0  0  0  0  0  0  0  0  0  0  0  0
    0.7940    1.7396    0.0000 C   0  0  0  0  0  0  0  0  0  0  0  0
    0.9183    0.9361    0.0000 N   0  0  0  0  0  0  0  0  0  0  0  0
    1.7425    0.7870    0.0000 C   0  0  0  0  0  0  0  0  0  0  0  0
    2.1566    0.0870    0.0000 C   0  0  0  0  0  0  0  0  0  0  0  0
    1.7425   -0.6171    0.0000 C   0  0  0  0  0  0  0  0  0  0  0  0
    0.9183   -0.7620    0.0000 N   0  0  0  0  0  0  0  0  0  0  0  0
    0.7940   -1.5655    0.0000 C   0  0  0  0  0  0  0  0  0  0  0  0
    1.5313   -1.9465    0.0000 C   0  0  1  0  0  0  0  0  0  0  0  0
    1.6536   -2.7624    0.0000 C   0  0  0  0  0  0  0  0  0  0  0  0
    2.4214   -3.0643    0.0000 C   0  0  0  0  0  0  0  0  0  0  0  0
    2.5437   -3.8802    0.0000 C   0  0  0  0  0  0  0  0  0  0  0  0
    3.3114   -4.1822    0.0000 O   0  0  0  0  0  0  0  0  0  0  0  0
    2.1235   -1.3667    0.0000 C   0  0  0  0  0  0  0  0  0  0  0  0
    2.7616   -1.8896    0.0000 C   0  0  0  0  0  0  0  0  0  0  0  0
    2.8954   -1.0755    0.0000 C   0  0  0  0  0  0  0  0  0  0  0  0
    0.0900    2.1495    0.0000 C   0  0  0  0  0  0  0  0  0  0  0  0
    0.0900    2.9745    0.0000 C   0  0  0  0  0  0  0  0  0  0  0  0
    0.0900   -1.9797    0.0000 C   0  0  0  0  0  0  0  0  0  0  0  0
    0.0900   -2.8047    0.0000 C   0  0  0  0  0  0  0  0  0  0  0  0
   -1.5708   -0.6171    0.0000 C   0  0  1  0  0  0  0  0  0  0  0  0
   -2.3677   -0.4036    0.0000 H   0  0  0  0  0  0  0  0  0  0  0  0
   -1.5708    0.8118    0.0000 C   0  0  2  0  0  0  0  0  0  0  0  0
   -2.3677    0.5983    0.0000 C   0  0  0  0  0  0  0  0  0  0  0  0
   -2.0741   -3.1840    0.0000 C   0  0  0  0  0  0  0  0  0  0  0  0
   -2.7885   -3.5965    0.0000 C   0  0  0  0  0  0  0  0  0  0  0  0
   -3.5030   -3.1840    0.0000 O   0  0  0  0  0  0  0  0  0  0  0  0
   -2.7885   -4.4215    0.0000 N   0  0  0  0  0  0  0  0  0  0  0  0
   -3.5030   -4.8340    0.0000 C   0  0  0  0  0  0  0  0  0  0  0  0
   -3.5030   -5.6590    0.0000 C   0  0  2  0  0  0  0  0  0  0  0  0
   -2.0741   -2.3590    0.0000 C   0  0  0  0  0  0  0  0  0  0  0  0
   -1.3596   -1.9465    0.0000 C   0  0  1  0  0  0  0  0  0  0  0  0
   -1.3596   -2.7715    0.0000 C   0  0  0  0  0  0  0  0  0  0  0  0
   -0.3008    4.7709    0.0000 N   0  0  0  0  0  0  0  0  0  0  0  0
    1.8983   -4.3941    0.0000 N   0  0  0  0  0  0  0  0  0  0  0  0
    2.5001   -5.6865    0.0000 C   0  0  0  0  0  0  0  0  0  0  0  0
    1.6751   -7.1154    0.0000 C   0  0  0  0  0  0  0  0  0  0  0  0
    1.6751   -5.6865    0.0000 C   0  0  0  0  0  0  0  0  0  0  0  0
    0.3694   -5.4090    0.0000 C   0  0  0  0  0  0  0  0  0  0  0  0
    1.2626   -6.4010    0.0000 C   0  0  0  0  0  0  0  0  0  0  0  0
    1.1231   -5.0734    0.0000 N   0  0  0  0  0  0  0  0  0  0  0  0
    0.4556   -6.2294    0.0000 N   0  0  0  0  0  0  0  0  0  0  0  0
    2.9126   -6.4010    0.0000 C   0  0  0  0  0  0  0  0  0  0  0  0
    3.7376   -6.4010    0.0000 C   0  0  0  0  0  0  0  0  0  0  0  0
    2.5001   -7.1154    0.0000 C   0  0  0  0  0  0  0  0  0  0  0  0
    2.9126   -7.8299    0.0000 C   0  0  0  0  0  0  0  0  0  0  0  0
   -0.1575   -6.7815    0.0000 C   0  0  1  0  0  0  0  0  0  0  0  0
   -0.0712   -7.6020    0.0000 O   0  0  0  0  0  0  0  0  0  0  0  0
   -0.8249   -7.9375    0.0000 C   0  0  2  0  0  0  0  0  0  0  0  0
   -0.9964   -8.7445    0.0000 C   0  0  0  0  0  0  0  0  0  0  0  0
   -1.7811   -8.9994    0.0000 O   0  0  0  0  0  0  0  0  0  0  0  0
   -0.9645   -6.6099    0.0000 C   0  0  2  0  0  0  0  0  0  0  0  0
   -1.3000   -5.8563    0.0000 O   0  0  0  0  0  0  0  0  0  0  0  0
   -1.3770   -7.3244    0.0000 C   0  0  2  0  0  0  0  0  0  0  0  0
   -2.1974   -7.4107    0.0000 O   0  0  0  0  0  0  0  0  0  0  0  0
    0.0601    0.1366    0.0000 Co  0  3  0  0  0  0  0  0  0  0  0  0
   -0.4324    2.9513    0.0000 O   0  0  0  0  0  0  0  0  0  0  0  0
   -0.1460    3.5514    0.0000 H   0  0  0  0  0  0  0  0  0  0  0  0
    2.1235    1.5366    0.0000 C   0  0  1  0  0  0  0  0  0  0  0  0
    2.8380    1.9490    0.0000 C   0  0  0  0  0  0  0  0  0  0  0  0
    3.5525    1.5365    0.0000 C   0  0  0  0  0  0  0  0  0  0  0  0
    4.2670    1.9489    0.0000 C   0  0  0  0  0  0  0  0  0  0  0  0
    4.2670    2.7738    0.0000 O   0  0  0  0  0  0  0  0  0  0  0  0
    4.9814    1.5363    0.0000 N   0  0  0  0  0  0  0  0  0  0  0  0
   -1.9518   -1.3667    0.0000 C   0  0  1  0  0  0  0  0  0  0  0  0
   -2.6663   -1.7792    0.0000 C   0  0  0  0  0  0  0  0  0  0  0  0
   -3.3808   -1.3667    0.0000 C   0  0  0  0  0  0  0  0  0  0  0  0
   -3.3808   -0.5418    0.0000 O   0  0  0  0  0  0  0  0  0  0  0  0
   -4.0952   -1.7794    0.0000 N   0  0  0  0  0  0  0  0  0  0  0  0
   -1.9518    1.5366    0.0000 C   0  0  1  0  0  0  0  0  0  0  0  0
   -2.6663    1.1242    0.0000 C   0  0  0  0  0  0  0  0  0  0  0  0
   -3.3808    1.5367    0.0000 C   0  0  0  0  0  0  0  0  0  0  0  0
   -4.0953    1.1243    0.0000 N   0  0  0  0  0  0  0  0  0  0  0  0
   -3.3808    2.3617    0.0000 O   0  0  0  0  0  0  0  0  0  0  0  0
   -2.5352    2.1200    0.0000 C   0  0  0  0  0  0  0  0  0  0  0  0
    1.5313    2.1164    0.0000 C   0  0  1  0  0  0  0  0  0  0  0  0
    2.2458    2.5289    0.0000 C   0  0  0  0  0  0  0  0  0  0  0  0
    1.5313    2.9414    0.0000 C   0  0  0  0  0  0  0  0  0  0  0  0
    2.2458    3.3539    0.0000 C   0  0  0  0  0  0  0  0  0  0  0  0
    2.2459    4.1789    0.0000 O   0  0  0  0  0  0  0  0  0  0  0  0
    2.9602    2.9414    0.0000 N   0  0  0  0  0  0  0  0  0  0  0  0
   -2.7808   -6.8273    0.0000 P   0  0  0  0  0  0  0  0  0  0  0  0
   -2.7808   -6.0023    0.0000 O   0  0  0  0  0  0  0  0  0  0  0  0
   -3.1933   -7.5418    0.0000 O   0  0  0  0  0  0  0  0  0  0  0  0
   -4.2175   -6.0715    0.0000 C   0  0  0  0  0  0  0  0  0  0  0  0
   -3.5777   -7.0408    0.0000 O   0  5  0  0  0  0  0  0  0  0  0  0
 27  1  2  0  0  0  0
  1  2  1  0  0  0  0
 40  1  1  0  0  0  0
 29  2  1  0  0  0  0
  2 64  1  0  0  0  0
 29 73  1  0  0  0  0
 29 31  1  0  0  0  0
 73 40  1  0  0  0  0
 31  3  1  0  0  0  0
 31 78  1  0  0  0  0
  3  4  2  0  0  0  0
  5  4  1  0  0  0  0
  4 25  1  0  0  0  0
  5  6  1  6  0  0  0
 78  5  1  0  0  0  0
  6  7  1  0  0  0  0
  7  8  1  0  0  0  0
  8 42  1  0  0  0  0
  8  9  2  0  0  0  0
 25 10  2  0  0  0  0
 10 11  1  0  0  0  0
 10 84  1  0  0  0  0
 11 12  2  0  0  0  0
 12 13  1  0  0  0  0
 12 67  1  0  0  0  0
 13 14  2  0  0  0  0
 14 15  1  0  0  0  0
 14 22  1  0  0  0  0
 15 16  2  0  0  0  0
 16 17  1  0  0  0  0
 17 18  1  6  0  0  0
 17 22  1  0  0  0  0
 18 19  1  0  0  0  0
 19 20  1  0  0  0  0
 20 43  1  0  0  0  0
 20 21  2  0  0  0  0
 22 23  1  0  0  0  0
 22 24  1  0  0  0  0
 67 84  1  0  0  0  0
 11 64  8  0  0  0  0
  3 64  8  0  0  0  0
 15 64  8  0  0  0  0
 25 26  1  0  0  0  0
 27 28  1  0  0  0  0
 29 30  1  1  0  0  0
 31 32  1  6  0  0  0
 39 33  1  0  0  0  0
 33 34  1  0  0  0  0
 34 36  1  0  0  0  0
 34 35  2  0  0  0  0
 37 36  1  0  0  0  0
 38 37  1  0  0  0  0
 40 39  1  6  0  0  0
 40 41  1  1  0  0  0
 27 16  1  0  0  0  0
 44 46  2  0  0  0  0
 44 51  1  0  0  0  0
 48 45  2  0  0  0  0
 45 53  1  0  0  0  0
 46 49  1  0  0  0  0
 46 48  1  0  0  0  0
 47 50  1  0  0  0  0
 47 49  2  0  0  0  0
 50 48  1  0  0  0  0
 55 50  1  1  0  0  0
 53 51  2  0  0  0  0
 51 52  1  0  0  0  0
 53 54  1  0  0  0  0
 55 60  1  0  0  0  0
 55 56  1  0  0  0  0
 57 56  1  0  0  0  0
 62 57  1  0  0  0  0
 57 58  1  6  0  0  0
 58 59  1  0  0  0  0
 60 62  1  0  0  0  0
 60 61  1  1  0  0  0
 62 63  1  1  0  0  0
 64 65  1  0  0  0  0
 65 66  1  0  0  0  0
 67 68  1  6  0  0  0
 68 69  1  0  0  0  0
 69 70  1  0  0  0  0
 70 72  1  0  0  0  0
 70 71  2  0  0  0  0
 73 74  1  1  0  0  0
 74 75  1  0  0  0  0
 75 77  1  0  0  0  0
 75 76  2  0  0  0  0
 78 79  1  0  0  0  0
 79 80  1  0  0  0  0
 80 82  2  0  0  0  0
 80 81  1  0  0  0  0
 78 83  1  6  0  0  0
 84 85  1  6  0  0  0
 84 86  1  1  0  0  0
 86 87  1  0  0  0  0
 87 89  1  0  0  0  0
 87 88  2  0  0  0  0
 63 90  1  0  0  0  0
 90 91  1  0  0  0  0
 90 92  2  0  0  0  0
 38 91  1  6  0  0  0
 38 93  1  0  0  0  0
 90 94  1  0  0  0  0
 49 64  8  0  0  0  0
M  CHG  2  64   1  94  -1
M  STY  4   1 DAT   2 DAT   3 DAT   4 DAT
M  SAL   1  2  11  64
M  SDT   1 MRV_COORDINATE_BOND_TYPE                              
M  SDD   1     0.0000    0.0000    DR    ALL  0       0  
M  SED   1 40
M  SAL   2  2   3  64
M  SDT   2 MRV_COORDINATE_BOND_TYPE                              
M  SDD   2     0.0000    0.0000    DR    ALL  0       0  
M  SED   2 41
M  SAL   3  2  15  64
M  SDT   3 MRV_COORDINATE_BOND_TYPE                              
M  SDD   3     0.0000    0.0000    DR    ALL  0       0  
M  SED   3 42
M  SAL   4  2  49  64
M  SDT   4 MRV_COORDINATE_BOND_TYPE                              
M  SDD   4     0.0000    0.0000    DR    ALL  0       0  
M  SED   4 105
M  END
>  <DRUGBANK_ID>
DB00200

>  <DRUG_GROUPS>
approved

>  <GENERIC_NAME>
Hydroxocobalamin

>  <SYNONYMS>
Hydroxomin; Vitamin B-12b

>  <BRANDS>
Acti-B12; Alpharedisol; Cyanokit; Hydro Cobex; Hydroxy Cobal

>  <CHEMICAL_FORMULA>
C62H89CoN13O15P

>  <MOLECULAR_WEIGHT>
1346.3551

>  <EXACT_MASS>
1345.567070949

>  <INCHI_IDENTIFIER>
InChI=1S/C62H90N13O14P.Co.H2O/c1-29-20-39-40(21-30(29)2)75(28-70-39)57-52(84)53(41(27-76)87-57)89-90(85,86)88-31(3)26-69-49(83)18-19-59(8)37(22-46(66)80)56-62(11)61(10,25-48(68)82)36(14-17-45(65)79)51(74-62)33(5)55-60(9,24-47(67)81)34(12-15-43(63)77)38(71-55)23-42-58(6,7)35(13-16-44(64)78)50(72-42)32(4)54(59)73-56;;/h20-21,23,28,31,34-37,41,52-53,56-57,76,84H,12-19,22,24-27H2,1-11H3,(H15,63,64,65,66,67,68,69,71,72,73,74,77,78,79,80,81,82,83,85,86);;1H2/q;+3;/p-3/t31-,34-,35-,36-,37+,41-,52-,53-,56-,57+,59-,60+,61+,62+;;/m1../s1

>  <INCHI_KEY>
InChIKey=YOZNUFWCRFCGIH-WZHZPDAFSA-K

>  <SMILES>
[H]O[Co+]N1\C2=C(C)/C3=N/C(=C\C4=N\C(=C(C)/C5=N[C@@](C)([C@@]1([H])[C@H](CC(=O)N)[C@@]2(C)CCC(=O)NC[C@@H](C)OP(=O)([O-])O[C@H]1[C@@H](O)[C@H](O[C@@H]1CO)N1C=NC2=CC(C)=C(C)C=C12)[C@@](C)(CC(N)=O)[C@@H]5CCC(=O)N)\[C@@](C)(CC(=O)N)[C@@H]4CCC(=O)N)/C(C)(C)[C@@H]3CCC(=O)N

>  <JCHEM_ACIDIC_PKA>
1.84

>  <JCHEM_BASIC_PKA>
8.78

>  <JCHEM_PHYSIOLOGICAL_CHARGE>
3

>  <ALOGPS_LOGP>
2.53

>  <ALOGPS_LOGS>
-5

>  <ALOGPS_SOLUBILITY>
1.46e-02 g/l

$$$$
201
  Mrv0541 02231214312D          

 14 15  0  0  0  0            999 V2000
    3.0791    1.6500    0.0000 O   0  0  0  0  0  0  0  0  0  0  0  0
    1.6500   -0.8250    0.0000 O   0  0  0  0  0  0  0  0  0  0  0  0
    3.0791   -0.8250    0.0000 N   0  0  0  0  0  0  0  0  0  0  0  0
    4.5741    0.6639    0.0000 N   0  0  0  0  0  0  0  0  0  0  0  0
    2.3645    0.4125    0.0000 N   0  0  0  0  0  0  0  0  0  0  0  0
    4.5741   -0.6639    0.0000 N   0  0  0  0  0  0  0  0  0  0  0  0
    3.7935    0.4125    0.0000 C   0  0  0  0  0  0  0  0  0  0  0  0
    3.7935   -0.4125    0.0000 C   0  0  0  0  0  0  0  0  0  0  0  0
    3.0791    0.8250    0.0000 C   0  0  0  0  0  0  0  0  0  0  0  0
    2.3645   -0.4125    0.0000 C   0  0  0  0  0  0  0  0  0  0  0  0
    5.0556    0.0000    0.0000 C   0  0  0  0  0  0  0  0  0  0  0  0
    3.0791   -1.6500    0.0000 C   0  0  0  0  0  0  0  0  0  0  0  0
    4.8305    1.4482    0.0000 C   0  0  0  0  0  0  0  0  0  0  0  0
    1.6500    0.8250    0.0000 C   0  0  0  0  0  0  0  0  0  0  0  0
  1  9  2  0  0  0  0
  2 10  2  0  0  0  0
  3  8  1  0  0  0  0
  3 10  1  0  0  0  0
  3 12  1  0  0  0  0
  4  7  1  0  0  0  0
  4 11  1  0  0  0  0
  4 13  1  0  0  0  0
  5  9  1  0  0  0  0
  5 10  1  0  0  0  0
  5 14  1  0  0  0  0
  6  8  1  0  0  0  0
  6 11  2  0  0  0  0
  7  8  2  0  0  0  0
  7  9  1  0  0  0  0
M  END
>  <DRUGBANK_ID>
DB00201

>  <DRUG_GROUPS>
approved

>  <GENERIC_NAME>
Caffeine

>  <SYNONYMS>
Cafeina; Caffein; CFF; Methyltheobromide; Methyltheobromine; Theobromine ME; Theophylline ME

>  <BRANDS>
Alert-Pep; Cafamil; Cafcit; Cafecon; Caffedrine; Caffine; Cafipel; Coffein; Coffeine; Dasin; Dexitac; DHC Plus; Diurex; Durvitan; Eldiatric C; Enerjets; Ercatab; Fioricet; Guaranine; Hycomine; Keep Alert; Kofein; Koffein; Mateina; Miudol; Nix Nap; No-Doz; Nodaca; Norgesic Forte; Organex; Pep-Back; Phensal; Quick Pep; Refresh'n; Stim; Thein; Theine; Vivarin; Wake-Up; Wigraine

>  <CHEMICAL_FORMULA>
C8H10N4O2

>  <MOLECULAR_WEIGHT>
194.1906

>  <EXACT_MASS>
194.080375584

>  <IUPAC_NAME>
1,3,7-trimethyl-2,3,6,7-tetrahydro-1H-purine-2,6-dione

>  <INCHI_IDENTIFIER>
InChI=1S/C8H10N4O2/c1-10-4-9-6-5(10)7(13)12(3)8(14)11(6)2/h4H,1-3H3

>  <INCHI_KEY>
InChIKey=RYYVLZVUVIJVGH-UHFFFAOYSA-N

>  <SMILES>
CN1C=NC2=C1C(=O)N(C)C(=O)N2C

>  <JCHEM_ACCEPTOR_COUNT>
3

>  <JCHEM_DONOR_COUNT>
0

>  <JCHEM_BASIC_PKA>
-0.92

>  <JCHEM_PHYSIOLOGICAL_CHARGE>
0

>  <ALOGPS_LOGP>
-0.24

>  <JCHEM_LOGP>
-0.55

>  <ALOGPS_LOGS>
-1.2

>  <JCHEM_POLARIZABILITY>
18.95

>  <JCHEM_POLAR_SURFACE_AREA>
58.44

>  <JCHEM_REFRACTIVITY>
49.83

>  <JCHEM_ROTATABLE_BOND_COUNT>
0

>  <ALOGPS_SOLUBILITY>
1.10e+01 g/l

$$$$
202
  Mrv0541 02231214312D          

 20 19  0  0  0  0            999 V2000
    4.5077    0.2063    0.0000 O   0  0  0  0  0  0  0  0  0  0  0  0
    8.0799   -0.2063    0.0000 O   0  0  0  0  0  0  0  0  0  0  0  0
    5.2221   -1.0312    0.0000 O   0  0  0  0  0  0  0  0  0  0  0  0
    7.3655    1.0312    0.0000 O   0  0  0  0  0  0  0  0  0  0  0  0
    2.3644   -0.2063    0.0000 N   0  3  0  0  0  0  0  0  0  0  0  0
   10.2233    0.2063    0.0000 N   0  3  0  0  0  0  0  0  0  0  0  0
    3.0789    0.2063    0.0000 C   0  0  0  0  0  0  0  0  0  0  0  0
    9.5088   -0.2063    0.0000 C   0  0  0  0  0  0  0  0  0  0  0  0
    2.7768   -0.9206    0.0000 C   0  0  0  0  0  0  0  0  0  0  0  0
    1.9519    0.5082    0.0000 C   0  0  0  0  0  0  0  0  0  0  0  0
    1.6499   -0.6188    0.0000 C   0  0  0  0  0  0  0  0  0  0  0  0
   10.6358   -0.5082    0.0000 C   0  0  0  0  0  0  0  0  0  0  0  0
    9.8108    0.9206    0.0000 C   0  0  0  0  0  0  0  0  0  0  0  0
   10.9376    0.6188    0.0000 C   0  0  0  0  0  0  0  0  0  0  0  0
    3.7933   -0.2063    0.0000 C   0  0  0  0  0  0  0  0  0  0  0  0
    8.7944    0.2063    0.0000 C   0  0  0  0  0  0  0  0  0  0  0  0
    5.9366    0.2063    0.0000 C   0  0  0  0  0  0  0  0  0  0  0  0
    6.6511   -0.2063    0.0000 C   0  0  0  0  0  0  0  0  0  0  0  0
    5.2221   -0.2063    0.0000 C   0  0  0  0  0  0  0  0  0  0  0  0
    7.3655    0.2063    0.0000 C   0  0  0  0  0  0  0  0  0  0  0  0
  1 15  1  0  0  0  0
  1 19  1  0  0  0  0
  2 16  1  0  0  0  0
  2 20  1  0  0  0  0
  3 19  2  0  0  0  0
  4 20  2  0  0  0  0
  5  7  1  0  0  0  0
  5  9  1  0  0  0  0
  5 10  1  0  0  0  0
  5 11  1  0  0  0  0
  6  8  1  0  0  0  0
  6 12  1  0  0  0  0
  6 13  1  0  0  0  0
  6 14  1  0  0  0  0
  7 15  1  0  0  0  0
  8 16  1  0  0  0  0
 17 18  1  0  0  0  0
 17 19  1  0  0  0  0
 18 20  1  0  0  0  0
M  CHG  2   5   1   6   1
M  END
>  <DRUGBANK_ID>
DB00202

>  <DRUG_GROUPS>
approved

>  <GENERIC_NAME>
Succinylcholine

>  <SYNONYMS>
Scoline; Succinylcholine Chloride; Suxamethonium chloride

>  <BRANDS>
Anectine; Quelicin; Sucostrin

>  <CHEMICAL_FORMULA>
C14H30N2O4

>  <MOLECULAR_WEIGHT>
290.399

>  <EXACT_MASS>
290.220557458

>  <IUPAC_NAME>
trimethyl[2-({4-oxo-4-[2-(trimethylazaniumyl)ethoxy]butanoyl}oxy)ethyl]azanium

>  <INCHI_IDENTIFIER>
InChI=1S/C14H30N2O4/c1-15(2,3)9-11-19-13(17)7-8-14(18)20-12-10-16(4,5)6/h7-12H2,1-6H3/q+2

>  <INCHI_KEY>
InChIKey=AXOIZCJOOAYSMI-UHFFFAOYSA-N

>  <SMILES>
C[N+](C)(C)CCOC(=O)CCC(=O)OCC[N+](C)(C)C

>  <JCHEM_ACCEPTOR_COUNT>
2

>  <JCHEM_DONOR_COUNT>
0

>  <JCHEM_BASIC_PKA>
-6.8

>  <JCHEM_PHYSIOLOGICAL_CHARGE>
2

>  <ALOGPS_LOGP>
-2.5

>  <JCHEM_LOGP>
-8.4

>  <ALOGPS_LOGS>
-5.7

>  <JCHEM_POLARIZABILITY>
33.15

>  <JCHEM_POLAR_SURFACE_AREA>
52.6

>  <JCHEM_REFRACTIVITY>
100.94

>  <JCHEM_ROTATABLE_BOND_COUNT>
11

>  <ALOGPS_SOLUBILITY>
7.57e-04 g/l

$$$$
5212
  Mrv0541 02231214312D          

 33 36  0  0  0  0            999 V2000
    4.5080   -0.4125    0.0000 S   0  0  0  0  0  0  0  0  0  0  0  0
    4.0955    0.3020    0.0000 O   0  0  0  0  0  0  0  0  0  0  0  0
    4.9205   -1.1270    0.0000 O   0  0  0  0  0  0  0  0  0  0  0  0
    7.3659    1.2375    0.0000 O   0  0  0  0  0  0  0  0  0  0  0  0
    8.0804   -2.4751    0.0000 O   0  0  0  0  0  0  0  0  0  0  0  0
    3.7935   -0.8250    0.0000 N   0  0  0  0  0  0  0  0  0  0  0  0
    2.3645   -1.6500    0.0000 N   0  0  0  0  0  0  0  0  0  0  0  0
    8.0804    0.0000    0.0000 N   0  0  0  0  0  0  0  0  0  0  0  0
    9.5756   -1.4889    0.0000 N   0  0  0  0  0  0  0  0  0  0  0  0
   10.0571   -0.8250    0.0000 N   0  0  0  0  0  0  0  0  0  0  0  0
    7.3659   -1.2375    0.0000 N   0  0  0  0  0  0  0  0  0  0  0  0
    3.0790   -0.4125    0.0000 C   0  0  0  0  0  0  0  0  0  0  0  0
    3.7935   -1.6500    0.0000 C   0  0  0  0  0  0  0  0  0  0  0  0
    2.3645   -0.8250    0.0000 C   0  0  0  0  0  0  0  0  0  0  0  0
    3.0790   -2.0625    0.0000 C   0  0  0  0  0  0  0  0  0  0  0  0
    5.2224    0.0000    0.0000 C   0  0  0  0  0  0  0  0  0  0  0  0
    1.6500   -2.0625    0.0000 C   0  0  0  0  0  0  0  0  0  0  0  0
    5.9370   -0.4125    0.0000 C   0  0  0  0  0  0  0  0  0  0  0  0
    6.6515    0.0000    0.0000 C   0  0  0  0  0  0  0  0  0  0  0  0
    5.2224    0.8250    0.0000 C   0  0  0  0  0  0  0  0  0  0  0  0
    7.3659   -0.4125    0.0000 C   0  0  0  0  0  0  0  0  0  0  0  0
    8.7949   -0.4125    0.0000 C   0  0  0  0  0  0  0  0  0  0  0  0
    6.6515    0.8250    0.0000 C   0  0  0  0  0  0  0  0  0  0  0  0
    5.9370    1.2375    0.0000 C   0  0  0  0  0  0  0  0  0  0  0  0
    9.5756   -0.1611    0.0000 C   0  0  0  0  0  0  0  0  0  0  0  0
    8.7949   -1.2375    0.0000 C   0  0  0  0  0  0  0  0  0  0  0  0
    9.8318    0.6231    0.0000 C   0  0  0  0  0  0  0  0  0  0  0  0
    8.0804   -1.6500    0.0000 C   0  0  0  0  0  0  0  0  0  0  0  0
   10.6391    0.7933    0.0000 C   0  0  0  0  0  0  0  0  0  0  0  0
    9.8318   -2.2732    0.0000 C   0  0  0  0  0  0  0  0  0  0  0  0
   10.8954    1.5774    0.0000 C   0  0  0  0  0  0  0  0  0  0  0  0
    7.3659    2.0625    0.0000 C   0  0  0  0  0  0  0  0  0  0  0  0
    8.0804    2.4751    0.0000 C   0  0  0  0  0  0  0  0  0  0  0  0
  1  2  2  0  0  0  0
  1  3  2  0  0  0  0
  1  6  1  0  0  0  0
  1 16  1  0  0  0  0
  4 23  1  0  0  0  0
  4 32  1  0  0  0  0
  5 28  2  0  0  0  0
  6 12  1  0  0  0  0
  6 13  1  0  0  0  0
  7 14  1  0  0  0  0
  7 15  1  0  0  0  0
  7 17  1  0  0  0  0
  8 21  1  0  0  0  0
  8 22  1  0  0  0  0
  9 10  1  0  0  0  0
  9 26  1  0  0  0  0
  9 30  1  0  0  0  0
 10 25  2  0  0  0  0
 11 21  2  0  0  0  0
 11 28  1  0  0  0  0
 12 14  1  0  0  0  0
 13 15  1  0  0  0  0
 16 18  2  0  0  0  0
 16 20  1  0  0  0  0
 18 19  1  0  0  0  0
 19 21  1  0  0  0  0
 19 23  2  0  0  0  0
 20 24  2  0  0  0  0
 22 25  1  0  0  0  0
 22 26  2  0  0  0  0
 23 24  1  0  0  0  0
 25 27  1  0  0  0  0
 26 28  1  0  0  0  0
 27 29  1  0  0  0  0
 29 31  1  0  0  0  0
 32 33  1  0  0  0  0
M  END
>  <DRUGBANK_ID>
DB00203

>  <DRUG_GROUPS>
approved; investigational

>  <GENERIC_NAME>
Sildenafil

>  <SYNONYMS>
Sildenafil Citrate

>  <BRANDS>
Revatio; Viagra

>  <CHEMICAL_FORMULA>
C22H30N6O4S

>  <MOLECULAR_WEIGHT>
474.576

>  <EXACT_MASS>
474.204924168

>  <IUPAC_NAME>
5-[2-ethoxy-5-(4-methylpiperazine-1-sulfonyl)phenyl]-1-methyl-3-propyl-1H,4H,7H-pyrazolo[4,3-d]pyrimidin-7-one

>  <INCHI_IDENTIFIER>
InChI=1S/C22H30N6O4S/c1-5-7-17-19-20(27(4)25-17)22(29)24-21(23-19)16-14-15(8-9-18(16)32-6-2)33(30,31)28-12-10-26(3)11-13-28/h8-9,14H,5-7,10-13H2,1-4H3,(H,23,24,29)

>  <INCHI_KEY>
InChIKey=BNRNXUUZRGQAQC-UHFFFAOYSA-N

>  <SMILES>
CCCC1=NN(C)C2=C1NC(=NC2=O)C1=C(OCC)C=CC(=C1)S(=O)(=O)N1CCN(C)CC1

>  <JCHEM_ACCEPTOR_COUNT>
8

>  <JCHEM_DONOR_COUNT>
1

>  <JCHEM_ACIDIC_PKA>
7.27

>  <JCHEM_BASIC_PKA>
5.97

>  <JCHEM_PHYSIOLOGICAL_CHARGE>
0

>  <ALOGPS_LOGP>
2.35

>  <JCHEM_LOGP>
1.65

>  <ALOGPS_LOGS>
-3

>  <JCHEM_POLARIZABILITY>
51.18

>  <JCHEM_POLAR_SURFACE_AREA>
109.13

>  <JCHEM_REFRACTIVITY>
139.44

>  <JCHEM_ROTATABLE_BOND_COUNT>
6

>  <ALOGPS_SOLUBILITY>
4.33e-01 g/l

$$$$
204
  Mrv0541 02231214312D          

 29 30  0  0  1  0            999 V2000
    5.9370    5.1564    0.0000 S   0  0  0  0  0  0  0  0  0  0  0  0
    2.3645   -5.1564    0.0000 S   0  0  0  0  0  0  0  0  0  0  0  0
    3.0791   -1.4438    0.0000 O   0  0  0  0  0  0  0  0  0  0  0  0
    6.3495    4.4419    0.0000 O   0  0  0  0  0  0  0  0  0  0  0  0
    5.5245    5.8708    0.0000 O   0  0  0  0  0  0  0  0  0  0  0  0
    1.9520   -4.4419    0.0000 O   0  0  0  0  0  0  0  0  0  0  0  0
    2.7770   -5.8708    0.0000 O   0  0  0  0  0  0  0  0  0  0  0  0
    4.5080    0.2063    0.0000 N   0  0  0  0  0  0  0  0  0  0  0  0
    5.2224    4.7439    0.0000 N   0  0  0  0  0  0  0  0  0  0  0  0
    3.0791   -4.7439    0.0000 N   0  0  0  0  0  0  0  0  0  0  0  0
    4.5080    1.0313    0.0000 C   0  0  0  0  0  0  0  0  0  0  0  0
    5.2224    1.4438    0.0000 C   0  0  0  0  0  0  0  0  0  0  0  0
    3.7935   -0.2063    0.0000 C   0  0  0  0  0  0  0  0  0  0  0  0
    5.2224    2.2688    0.0000 C   0  0  0  0  0  0  0  0  0  0  0  0
    3.7935   -1.0313    0.0000 C   0  0  0  0  0  0  0  0  0  0  0  0
    5.2224   -0.2063    0.0000 C   0  0  0  0  0  0  0  0  0  0  0  0
    4.5080    2.6813    0.0000 C   0  0  0  0  0  0  0  0  0  0  0  0
    5.9370    2.6813    0.0000 C   0  0  0  0  0  0  0  0  0  0  0  0
    5.2224    3.9188    0.0000 C   0  0  0  0  0  0  0  0  0  0  0  0
    4.5080    3.5063    0.0000 C   0  0  0  0  0  0  0  0  0  0  0  0
    5.9370    3.5063    0.0000 C   0  0  0  0  0  0  0  0  0  0  0  0
    3.0791   -2.2688    0.0000 C   0  0  0  0  0  0  0  0  0  0  0  0
    3.0791   -3.9188    0.0000 C   0  0  0  0  0  0  0  0  0  0  0  0
    2.3645   -2.6813    0.0000 C   0  0  0  0  0  0  0  0  0  0  0  0
    3.7935   -2.6813    0.0000 C   0  0  0  0  0  0  0  0  0  0  0  0
    2.3645   -3.5063    0.0000 C   0  0  0  0  0  0  0  0  0  0  0  0
    3.7935   -3.5063    0.0000 C   0  0  0  0  0  0  0  0  0  0  0  0
    6.6515    5.5689    0.0000 C   0  0  0  0  0  0  0  0  0  0  0  0
    1.6500   -5.5689    0.0000 C   0  0  0  0  0  0  0  0  0  0  0  0
  1  4  2  0  0  0  0
  1  5  2  0  0  0  0
  1  9  1  0  0  0  0
  1 28  1  0  0  0  0
  2  6  2  0  0  0  0
  2  7  2  0  0  0  0
  2 10  1  0  0  0  0
  2 29  1  0  0  0  0
  3 15  1  0  0  0  0
  3 22  1  0  0  0  0
  8 11  1  0  0  0  0
  8 13  1  0  0  0  0
  8 16  1  0  0  0  0
  9 19  1  0  0  0  0
 10 23  1  0  0  0  0
 11 12  1  0  0  0  0
 12 14  1  0  0  0  0
 13 15  1  0  0  0  0
 14 17  2  0  0  0  0
 14 18  1  0  0  0  0
 17 20  1  0  0  0  0
 18 21  2  0  0  0  0
 19 20  2  0  0  0  0
 19 21  1  0  0  0  0
 22 24  2  0  0  0  0
 22 25  1  0  0  0  0
 23 26  2  0  0  0  0
 23 27  1  0  0  0  0
 24 26  1  0  0  0  0
 25 27  2  0  0  0  0
M  END
>  <DRUGBANK_ID>
DB00204

>  <DRUG_GROUPS>
approved

>  <GENERIC_NAME>
Dofetilide

>  <SYNONYMS>
Dofetilida [INN-Spanish]; Dofetilidum [INN-Latin]

>  <BRANDS>
Dofetilida; Tikosyn

>  <CHEMICAL_FORMULA>
C19H27N3O5S2

>  <MOLECULAR_WEIGHT>
441.565

>  <EXACT_MASS>
441.139212369

>  <IUPAC_NAME>
N-[4-(2-{[2-(4-methanesulfonamidophenoxy)ethyl](methyl)amino}ethyl)phenyl]methanesulfonamide

>  <INCHI_IDENTIFIER>
InChI=1S/C19H27N3O5S2/c1-22(13-12-16-4-6-17(7-5-16)20-28(2,23)24)14-15-27-19-10-8-18(9-11-19)21-29(3,25)26/h4-11,20-21H,12-15H2,1-3H3

>  <INCHI_KEY>
InChIKey=IXTMWRCNAAVVAI-UHFFFAOYSA-N

>  <SMILES>
CN(CCOC1=CC=C(NS(C)(=O)=O)C=C1)CCC1=CC=C(NS(C)(=O)=O)C=C1

>  <JCHEM_ACCEPTOR_COUNT>
6

>  <JCHEM_DONOR_COUNT>
2

>  <JCHEM_ACIDIC_PKA>
10.15

>  <JCHEM_BASIC_PKA>
8.99

>  <JCHEM_PHYSIOLOGICAL_CHARGE>
1

>  <ALOGPS_LOGP>
2.17

>  <JCHEM_LOGP>
0.24

>  <ALOGPS_LOGS>
-4.3

>  <JCHEM_POLARIZABILITY>
46.03

>  <JCHEM_POLAR_SURFACE_AREA>
104.81

>  <JCHEM_REFRACTIVITY>
113.27

>  <JCHEM_ROTATABLE_BOND_COUNT>
9

>  <ALOGPS_SOLUBILITY>
1.98e-02 g/l

$$$$
205
  Mrv0541 02231214312D          

 17 18  0  0  0  0            999 V2000
    3.5220    3.0154    0.0000 Cl  0  0  0  0  0  0  0  0  0  0  0  0
    4.2365   -1.5222    0.0000 N   0  0  0  0  0  0  0  0  0  0  0  0
    2.8075   -1.5222    0.0000 N   0  0  0  0  0  0  0  0  0  0  0  0
    2.0930   -0.2846    0.0000 N   0  0  0  0  0  0  0  0  0  0  0  0
    3.5220   -2.7597    0.0000 N   0  0  0  0  0  0  0  0  0  0  0  0
    3.5220   -0.2846    0.0000 C   0  0  0  0  0  0  0  0  0  0  0  0
    4.2365   -0.6971    0.0000 C   0  0  0  0  0  0  0  0  0  0  0  0
    4.9509   -0.2846    0.0000 C   0  0  0  0  0  0  0  0  0  0  0  0
    3.5220    0.5404    0.0000 C   0  0  0  0  0  0  0  0  0  0  0  0
    2.8075   -0.6971    0.0000 C   0  0  0  0  0  0  0  0  0  0  0  0
    2.8075    0.9529    0.0000 C   0  0  0  0  0  0  0  0  0  0  0  0
    4.2365    0.9529    0.0000 C   0  0  0  0  0  0  0  0  0  0  0  0
    5.6655   -0.6971    0.0000 C   0  0  0  0  0  0  0  0  0  0  0  0
    3.5220   -1.9347    0.0000 C   0  0  0  0  0  0  0  0  0  0  0  0
    2.8075    1.7779    0.0000 C   0  0  0  0  0  0  0  0  0  0  0  0
    4.2365    1.7779    0.0000 C   0  0  0  0  0  0  0  0  0  0  0  0
    3.5220    2.1904    0.0000 C   0  0  0  0  0  0  0  0  0  0  0  0
  1 17  1  0  0  0  0
  2  7  1  0  0  0  0
  2 14  2  0  0  0  0
  3 10  2  0  0  0  0
  3 14  1  0  0  0  0
  4 10  1  0  0  0  0
  5 14  1  0  0  0  0
  6  7  2  0  0  0  0
  6  9  1  0  0  0  0
  6 10  1  0  0  0  0
  7  8  1  0  0  0  0
  8 13  1  0  0  0  0
  9 11  2  0  0  0  0
  9 12  1  0  0  0  0
 11 15  1  0  0  0  0
 12 16  2  0  0  0  0
 15 17  2  0  0  0  0
 16 17  1  0  0  0  0
M  END
>  <DRUGBANK_ID>
DB00205

>  <DRUG_GROUPS>
approved

>  <GENERIC_NAME>
Pyrimethamine

>  <SYNONYMS>
CD; Chloridin; Chloridine; Chloridyn; Diaminopyritamin; Ethylpyrimidine; Pirimetamin; Pirimetamina; Primethamine; Pyremethamine; Pyrimethamin; Pyrimethamine Hcl

>  <BRANDS>
Darachlor; Daraclor; Darapram; Daraprim; Daraprime; Disulone; Erbaprelina; Fansidar; Khloridin; Malacid; Malocid; Malocide; Maloprim; Pirimecidan; Tindurin; Tinduring

>  <CHEMICAL_FORMULA>
C12H13ClN4

>  <MOLECULAR_WEIGHT>
248.711

>  <EXACT_MASS>
248.082874143

>  <IUPAC_NAME>
5-(4-chlorophenyl)-6-ethylpyrimidine-2,4-diamine

>  <INCHI_IDENTIFIER>
InChI=1S/C12H13ClN4/c1-2-9-10(11(14)17-12(15)16-9)7-3-5-8(13)6-4-7/h3-6H,2H2,1H3,(H4,14,15,16,17)

>  <INCHI_KEY>
InChIKey=WKSAUQYGYAYLPV-UHFFFAOYSA-N

>  <SMILES>
CCC1=C(C(N)=NC(N)=N1)C1=CC=C(Cl)C=C1

>  <JCHEM_ACCEPTOR_COUNT>
4

>  <JCHEM_DONOR_COUNT>
2

>  <JCHEM_ACIDIC_PKA>
17.22

>  <JCHEM_BASIC_PKA>
7.77

>  <JCHEM_PHYSIOLOGICAL_CHARGE>
1

>  <ALOGPS_LOGP>
2.62

>  <JCHEM_LOGP>
2.75

>  <ALOGPS_LOGS>
-3.1

>  <JCHEM_POLARIZABILITY>
25.79

>  <JCHEM_POLAR_SURFACE_AREA>
77.82

>  <JCHEM_REFRACTIVITY>
71.54

>  <JCHEM_ROTATABLE_BOND_COUNT>
2

>  <ALOGPS_SOLUBILITY>
1.79e-01 g/l

$$$$
206
  Mrv0541 02231214312D          

 47 52  0  0  1  0            999 V2000
    9.0369   -1.7075    0.0000 O   0  0  0  0  0  0  0  0  0  0  0  0
   10.1915   -0.4251    0.0000 O   0  0  0  0  0  0  0  0  0  0  0  0
    7.5976   -2.1233    0.0000 O   0  0  0  0  0  0  0  0  0  0  0  0
    6.5468   -1.1549    0.0000 O   0  0  0  0  0  0  0  0  0  0  0  0
   10.4832    0.9737    0.0000 O   0  0  0  0  0  0  0  0  0  0  0  0
    2.2049    1.5700    0.0000 O   0  0  0  0  0  0  0  0  0  0  0  0
   12.8723   -1.7140    0.0000 O   0  0  0  0  0  0  0  0  0  0  0  0
   13.4557    1.0837    0.0000 O   0  0  0  0  0  0  0  0  0  0  0  0
   13.9716   -0.4836    0.0000 O   0  0  0  0  0  0  0  0  0  0  0  0
    7.1074    1.7459    0.0000 N   0  0  0  0  0  0  0  0  0  0  0  0
    5.0836    0.8240    0.0000 N   0  0  0  0  0  0  0  0  0  0  0  0
    7.6474    0.1264    0.0000 C   0  0  2  0  0  0  0  0  0  0  0  0
    8.2224    0.7650    0.0000 C   0  0  1  0  0  0  0  0  0  0  0  0
    6.8083    0.3115    0.0000 C   0  0  0  0  0  0  0  0  0  0  0  0
    7.9109   -0.7290    0.0000 C   0  0  1  0  0  0  0  0  0  0  0  0
    6.5553    1.1328    0.0000 C   0  0  2  0  0  0  0  0  0  0  0  0
    7.9505    1.5802    0.0000 C   0  0  0  0  0  0  0  0  0  0  0  0
    9.1007    0.5924    0.0000 C   0  0  0  0  0  0  0  0  0  0  0  0
    8.7849   -0.9219    0.0000 C   0  0  2  0  0  0  0  0  0  0  0  0
    9.3839   -0.2567    0.0000 C   0  0  2  0  0  0  0  0  0  0  0  0
    5.7484    1.3043    0.0000 C   0  0  0  0  0  0  0  0  0  0  0  0
    6.8524    2.5305    0.0000 C   0  0  0  0  0  0  0  0  0  0  0  0
    5.4935    2.0889    0.0000 C   0  0  0  0  0  0  0  0  0  0  0  0
    6.0455    2.7020    0.0000 C   0  0  0  0  0  0  0  0  0  0  0  0
    7.3518   -1.3357    0.0000 C   0  0  0  0  0  0  0  0  0  0  0  0
    4.6734    2.0868    0.0000 C   0  0  0  0  0  0  0  0  0  0  0  0
    4.4206    1.3066    0.0000 C   0  0  0  0  0  0  0  0  0  0  0  0
    9.8431   -1.8821    0.0000 C   0  0  0  0  0  0  0  0  0  0  0  0
    4.1111    2.7299    0.0000 C   0  0  0  0  0  0  0  0  0  0  0  0
   10.7411    0.1901    0.0000 C   0  0  0  0  0  0  0  0  0  0  0  0
    3.5880    1.1155    0.0000 C   0  0  0  0  0  0  0  0  0  0  0  0
    3.2743    2.5580    0.0000 C   0  0  0  0  0  0  0  0  0  0  0  0
    3.0110    1.7453    0.0000 C   0  0  0  0  0  0  0  0  0  0  0  0
    7.0385   -2.7299    0.0000 C   0  0  0  0  0  0  0  0  0  0  0  0
   11.5488    0.0217    0.0000 C   0  0  0  0  0  0  0  0  0  0  0  0
   12.0984    0.6369    0.0000 C   0  0  0  0  0  0  0  0  0  0  0  0
   11.8067   -0.7620    0.0000 C   0  0  0  0  0  0  0  0  0  0  0  0
   12.6143   -0.9303    0.0000 C   0  0  0  0  0  0  0  0  0  0  0  0
   12.9060    0.4684    0.0000 C   0  0  0  0  0  0  0  0  0  0  0  0
    1.6500    2.1805    0.0000 C   0  0  0  0  0  0  0  0  0  0  0  0
   13.1639   -0.3151    0.0000 C   0  0  0  0  0  0  0  0  0  0  0  0
   12.3226   -2.3292    0.0000 C   0  0  0  0  0  0  0  0  0  0  0  0
   13.1977    1.8673    0.0000 C   0  0  0  0  0  0  0  0  0  0  0  0
   14.5212    0.1317    0.0000 C   0  0  0  0  0  0  0  0  0  0  0  0
    7.2001   -0.3590    0.0000 H   0  0  0  0  0  0  0  0  0  0  0  0
    8.6583    1.2606    0.0000 H   0  0  0  0  0  0  0  0  0  0  0  0
    6.1100    0.6457    0.0000 H   0  0  0  0  0  0  0  0  0  0  0  0
 19  1  1  6  0  0  0
  1 28  1  0  0  0  0
 20  2  1  1  0  0  0
  2 30  1  0  0  0  0
  3 25  1  0  0  0  0
  3 34  1  0  0  0  0
  4 25  2  0  0  0  0
  5 30  2  0  0  0  0
  6 33  1  0  0  0  0
  6 40  1  0  0  0  0
  7 38  1  0  0  0  0
  7 42  1  0  0  0  0
  8 39  1  0  0  0  0
  8 43  1  0  0  0  0
  9 41  1  0  0  0  0
  9 44  1  0  0  0  0
 10 16  1  0  0  0  0
 10 17  1  0  0  0  0
 10 22  1  0  0  0  0
 11 21  1  0  0  0  0
 11 27  1  0  0  0  0
 12 13  1  0  0  0  0
 12 14  1  0  0  0  0
 12 15  1  0  0  0  0
 12 45  1  6  0  0  0
 13 17  1  0  0  0  0
 13 18  1  0  0  0  0
 13 46  1  6  0  0  0
 14 16  1  0  0  0  0
 15 19  1  0  0  0  0
 15 25  1  1  0  0  0
 16 21  1  0  0  0  0
 16 47  1  1  0  0  0
 18 20  1  0  0  0  0
 19 20  1  0  0  0  0
 21 23  2  0  0  0  0
 22 24  1  0  0  0  0
 23 24  1  0  0  0  0
 23 26  1  0  0  0  0
 26 27  2  0  0  0  0
 26 29  1  0  0  0  0
 27 31  1  0  0  0  0
 29 32  2  0  0  0  0
 30 35  1  0  0  0  0
 31 33  2  0  0  0  0
 32 33  1  0  0  0  0
 35 36  2  0  0  0  0
 35 37  1  0  0  0  0
 36 39  1  0  0  0  0
 37 38  2  0  0  0  0
 38 41  1  0  0  0  0
 39 41  2  0  0  0  0
M  END
>  <DRUGBANK_ID>
DB00206

>  <DRUG_GROUPS>
approved

>  <GENERIC_NAME>
Reserpine

>  <BRANDS>
Demi-Regroton; Diupres-250; Diupres-500; Diutensen-R; Dralserp; Hiserpia; Hydromox R; Hydroserpine Plus (R-H-H); Metatensin #2; Metatensin #4; Novoreserpine; Rau-Sed; Regroton; Renese-R; Reserfia; Salutensin-Demi; Sandril; Serpalan; Serpanray; Serpasil; Serpasil-Apresoline; Serpasil-Esidrix #1; Serpasil-Esidrix #2; Serpate; Serpivite

>  <CHEMICAL_FORMULA>
C33H40N2O9

>  <MOLECULAR_WEIGHT>
608.6787

>  <EXACT_MASS>
608.273380888

>  <IUPAC_NAME>
methyl (1R,15S,17R,18R,19S,20S)-6,18-dimethoxy-17-[(3,4,5-trimethoxyphenyl)carbonyloxy]-3,13-diazapentacyclo[11.8.0.0^{2,10}.0^{4,9}.0^{15,20}]henicosa-2(10),4,6,8-tetraene-19-carboxylate

>  <INCHI_IDENTIFIER>
InChI=1S/C33H40N2O9/c1-38-19-7-8-20-21-9-10-35-16-18-13-27(44-32(36)17-11-25(39-2)30(41-4)26(12-17)40-3)31(42-5)28(33(37)43-6)22(18)15-24(35)29(21)34-23(20)14-19/h7-8,11-12,14,18,22,24,27-28,31,34H,9-10,13,15-16H2,1-6H3/t18-,22+,24-,27-,28+,31+/m1/s1

>  <INCHI_KEY>
InChIKey=QEVHRUUCFGRFIF-MDEJGZGSSA-N

>  <SMILES>
[H][C@]12C[C@@H](OC(=O)C3=CC(OC)=C(OC)C(OC)=C3)[C@H](OC)[C@@H](C(=O)OC)[C@@]1([H])C[C@@]1([H])N(CCC3=C1NC1=C3C=CC(OC)=C1)C2

>  <JCHEM_ACCEPTOR_COUNT>
8

>  <JCHEM_DONOR_COUNT>
1

>  <JCHEM_ACIDIC_PKA>
16.29

>  <JCHEM_BASIC_PKA>
7.56

>  <JCHEM_PHYSIOLOGICAL_CHARGE>
1

>  <ALOGPS_LOGP>
4.05

>  <JCHEM_LOGP>
3.53

>  <ALOGPS_LOGS>
-4.7

>  <JCHEM_POLARIZABILITY>
66.05

>  <JCHEM_POLAR_SURFACE_AREA>
117.78

>  <JCHEM_REFRACTIVITY>
161.42

>  <JCHEM_ROTATABLE_BOND_COUNT>
10

>  <ALOGPS_SOLUBILITY>
1.13e-02 g/l

$$$$

  Mrv0541 04191212112D          

 52 54  0  0  0  0            999 V2000
   -3.2657    2.7280    0.0000 N   0  0  0  0  0  0  0  0  0  0  0  0
   -1.7679    2.7107    0.0000 C   0  0  0  0  0  0  0  0  0  0  0  0
   -3.6782    2.0135    0.0000 C   0  0  1  0  0  0  0  0  0  0  0  0
   -1.3554    1.9962    0.0000 C   0  0  1  0  0  0  0  0  0  0  0  0
   -1.7679    1.2818    0.0000 C   0  0  0  0  0  0  0  0  0  0  0  0
   -1.1845    0.6984    0.0000 C   0  0  2  0  0  0  0  0  0  0  0  0
   -1.1845   -0.1266    0.0000 C   0  0  1  0  0  0  0  0  0  0  0  0
   -1.7679   -0.7100    0.0000 C   0  0  2  0  0  0  0  0  0  0  0  0
   -1.7679   -1.5350    0.0000 C   0  0  1  0  0  0  0  0  0  0  0  0
   -2.4823   -1.9475    0.0000 C   0  0  2  0  0  0  0  0  0  0  0  0
   -3.1968   -1.5350    0.0000 C   0  0  0  0  0  0  0  0  0  0  0  0
   -3.1968   -0.7100    0.0000 O   0  0  0  0  0  0  0  0  0  0  0  0
   -3.9113   -0.2975    0.0000 C   0  0  1  0  0  0  0  0  0  0  0  0
   -3.9113    0.5275    0.0000 C   0  0  2  0  0  0  0  0  0  0  0  0
   -3.3279    1.1109    0.0000 C   0  0  2  0  0  0  0  0  0  0  0  0
   -3.2657    3.5530    0.0000 C   0  0  0  0  0  0  0  0  0  0  0  0
   -4.4751    2.2270    0.0000 C   0  0  0  0  0  0  0  0  0  0  0  0
   -2.5310    0.8974    0.0000 O   0  0  0  0  0  0  0  0  0  0  0  0
   -4.6258    0.9400    0.0000 O   0  0  0  0  0  0  0  0  0  0  0  0
   -2.4823   -2.7725    0.0000 C   0  0  0  0  0  0  0  0  0  0  0  0
   -0.3876    0.9119    0.0000 O   0  0  0  0  0  0  0  0  0  0  0  0
   -0.5585    2.2097    0.0000 C   0  0  0  0  0  0  0  0  0  0  0  0
   -0.4700    0.2859    0.0000 C   0  0  0  0  0  0  0  0  0  0  0  0
   -4.6258    0.1150    0.0000 C   0  0  0  0  0  0  0  0  0  0  0  0
   -4.6258   -0.7100    0.0000 C   0  0  0  0  0  0  0  0  0  0  0  0
   -0.6394   -3.2068    0.0000 O   0  0  0  0  0  0  0  0  0  0  0  0
    0.5612   -0.6851    0.0000 O   0  0  0  0  0  0  0  0  0  0  0  0
   -3.9113   -1.9475    0.0000 O   0  0  0  0  0  0  0  0  0  0  0  0
   -5.4508   -0.7100    0.0000 C   0  0  0  0  0  0  0  0  0  0  0  0
   -0.6394   -4.0318    0.0000 C   0  0  1  0  0  0  0  0  0  0  0  0
    1.7987   -1.3996    0.0000 C   0  0  1  0  0  0  0  0  0  0  0  0
    0.9737   -1.3996    0.0000 C   0  0  1  0  0  0  0  0  0  0  0  0
    0.5612   -2.1141    0.0000 O   0  0  0  0  0  0  0  0  0  0  0  0
    0.9736   -2.8286    0.0000 C   0  0  1  0  0  0  0  0  0  0  0  0
    1.7986   -2.8286    0.0000 C   0  0  0  0  0  0  0  0  0  0  0  0
    2.2112   -2.1141    0.0000 C   0  0  2  0  0  0  0  0  0  0  0  0
    0.1856   -4.0318    0.0000 C   0  0  0  0  0  0  0  0  0  0  0  0
   -1.0519   -4.7463    0.0000 O   0  0  0  0  0  0  0  0  0  0  0  0
   -0.6395   -5.4608    0.0000 C   0  0  2  0  0  0  0  0  0  0  0  0
    0.1855   -5.4608    0.0000 C   0  0  1  0  0  0  0  0  0  0  0  0
    0.5981   -4.7463    0.0000 C   0  0  1  0  0  0  0  0  0  0  0  0
    2.3820   -0.8162    0.0000 O   0  0  0  0  0  0  0  0  0  0  0  0
   -1.2228   -6.0441    0.0000 C   0  0  0  0  0  0  0  0  0  0  0  0
    1.1814   -5.3296    0.0000 C   0  0  0  0  0  0  0  0  0  0  0  0
    0.5611   -3.5430    0.0000 C   0  0  0  0  0  0  0  0  0  0  0  0
    3.0362   -2.1141    0.0000 N   0  0  0  0  0  0  0  0  0  0  0  0
    1.1814   -4.1629    0.0000 O   0  0  0  0  0  0  0  0  0  0  0  0
    0.5980   -6.1752    0.0000 O   0  0  0  0  0  0  0  0  0  0  0  0
    2.0064   -4.1629    0.0000 C   0  0  0  0  0  0  0  0  0  0  0  0
    3.6195   -1.5307    0.0000 C   0  0  0  0  0  0  0  0  0  0  0  0
    3.4487   -2.8286    0.0000 C   0  0  0  0  0  0  0  0  0  0  0  0
   -2.4824   -0.2975    0.0000 C   0  0  0  0  0  0  0  0  0  0  0  0
  1  2  1  0  0  0  0
  1  3  1  0  0  0  0
  2  4  1  0  0  0  0
  4  5  1  0  0  0  0
  5  6  1  0  0  0  0
  6  7  1  0  0  0  0
  7  8  1  0  0  0  0
  8  9  1  0  0  0  0
  9 10  1  0  0  0  0
 10 11  1  0  0  0  0
 11 12  1  0  0  0  0
 12 13  1  0  0  0  0
 13 14  1  0  0  0  0
 14 15  1  0  0  0  0
 15  3  1  0  0  0  0
  1 16  1  0  0  0  0
  3 17  1  1  0  0  0
 15 18  1  1  0  0  0
 14 19  1  1  0  0  0
 10 20  1  1  0  0  0
  6 21  1  1  0  0  0
  4 22  1  6  0  0  0
  6 23  1  6  0  0  0
 14 24  1  6  0  0  0
 13 25  1  6  0  0  0
  9 26  1  6  0  0  0
  7 27  1  6  0  0  0
 11 28  2  0  0  0  0
 25 29  1  0  0  0  0
 32 27  1  1  0  0  0
 30 26  1  1  0  0  0
 31 32  1  0  0  0  0
 32 33  1  0  0  0  0
 33 34  1  0  0  0  0
 34 35  1  0  0  0  0
 35 36  1  0  0  0  0
 31 36  1  0  0  0  0
 37 30  1  0  0  0  0
 30 38  1  0  0  0  0
 38 39  1  0  0  0  0
 39 40  1  0  0  0  0
 40 41  1  0  0  0  0
 37 41  1  0  0  0  0
 31 42  1  6  0  0  0
 39 43  1  6  0  0  0
 41 44  1  6  0  0  0
 34 45  1  1  0  0  0
 36 46  1  1  0  0  0
 41 47  1  1  0  0  0
 40 48  1  1  0  0  0
 47 49  1  0  0  0  0
 46 50  1  0  0  0  0
 46 51  1  0  0  0  0
  8 52  1  6  0  0  0
M  END
>  <DRUGBANK_ID>
DB00207

>  <DRUG_GROUPS>
approved

>  <GENERIC_NAME>
Azithromycin

>  <SYNONYMS>
Azithramycine; Azithromycin Dihydrate; Azithromycine [French]; Azithromycinum [Latin]; Azitromicina [Spanish]

>  <BRANDS>
Azenil; Azibiot; Azifine; Azitromax; Aziwok; Aztrin; Hemomycin; Misultina; Mixoterin; Setron; Sumamed; Tobil; Tromix; Vinzam; Zeto; Zifin; Zithrax; Zithromax; Zitrim; Zitrocin; Zitromax; Zitrotek; Zmax

>  <CHEMICAL_FORMULA>
C38H72N2O12

>  <MOLECULAR_WEIGHT>
748.9845

>  <EXACT_MASS>
748.508525778

>  <IUPAC_NAME>
(2R,3S,4R,5R,8R,10R,11R,12S,13S,14R)-11-{[(2S,3R,4S,6R)-4-(dimethylamino)-3-hydroxy-6-methyloxan-2-yl]oxy}-2-ethyl-3,4,10-trihydroxy-13-{[(2R,4R,5S,6S)-5-hydroxy-4-methoxy-4,6-dimethyloxan-2-yl]oxy}-3,5,6,8,10,12,14-heptamethyl-1-oxa-6-azacyclopentadecan-15-one

>  <INCHI_IDENTIFIER>
InChI=1S/C38H72N2O12/c1-15-27-38(10,46)31(42)24(6)40(13)19-20(2)17-36(8,45)33(52-35-29(41)26(39(11)12)16-21(3)48-35)22(4)30(23(5)34(44)50-27)51-28-18-37(9,47-14)32(43)25(7)49-28/h20-33,35,41-43,45-46H,15-19H2,1-14H3/t20-,21-,22+,23-,24-,25+,26+,27-,28+,29-,30+,31-,32+,33-,35+,36-,37-,38-/m1/s1

>  <INCHI_KEY>
InChIKey=MQTOSJVFKKJCRP-BICOPXKESA-N

>  <SMILES>
CC[C@H]1OC(=O)[C@H](C)[C@@H](O[C@H]2C[C@@](C)(OC)[C@@H](O)[C@H](C)O2)[C@H](C)[C@@H](O[C@@H]2O[C@H](C)C[C@@H]([C@H]2O)N(C)C)[C@](C)(O)C[C@@H](C)CN(C)[C@H](C)[C@@H](O)[C@]1(C)O

>  <JCHEM_ACCEPTOR_COUNT>
13

>  <JCHEM_DONOR_COUNT>
5

>  <JCHEM_ACIDIC_PKA>
12.43

>  <JCHEM_BASIC_PKA>
9.57

>  <JCHEM_PHYSIOLOGICAL_CHARGE>
2

>  <ALOGPS_LOGP>
3.03

>  <JCHEM_LOGP>
2.44

>  <ALOGPS_LOGS>
-3.2

>  <JCHEM_POLARIZABILITY>
83.11

>  <JCHEM_POLAR_SURFACE_AREA>
180.08

>  <JCHEM_REFRACTIVITY>
194.11

>  <JCHEM_ROTATABLE_BOND_COUNT>
7

>  <ALOGPS_SOLUBILITY>
5.14e-01 g/l

$$$$
208
  Mrv0541 02231214312D          

 17 19  0  0  1  0            999 V2000
    2.3645    1.2375    0.0000 Cl  0  0  0  0  0  0  0  0  0  0  0  0
    6.7176   -1.0764    0.0000 S   0  0  0  0  0  0  0  0  0  0  0  0
    4.5080    0.0000    0.0000 N   0  0  0  0  0  0  0  0  0  0  0  0
    4.5080   -0.8250    0.0000 C   0  0  0  0  0  0  0  0  0  0  0  0
    5.2224    0.4125    0.0000 C   0  0  0  0  0  0  0  0  0  0  0  0
    5.2224   -1.2375    0.0000 C   0  0  0  0  0  0  0  0  0  0  0  0
    5.9370    0.0000    0.0000 C   0  0  0  0  0  0  0  0  0  0  0  0
    5.9370   -0.8250    0.0000 C   0  0  0  0  0  0  0  0  0  0  0  0
    3.7935    0.4125    0.0000 C   0  0  0  0  0  0  0  0  0  0  0  0
    3.0791    0.0000    0.0000 C   0  0  0  0  0  0  0  0  0  0  0  0
    6.7176    0.2514    0.0000 C   0  0  0  0  0  0  0  0  0  0  0  0
    7.1991   -0.4125    0.0000 C   0  0  0  0  0  0  0  0  0  0  0  0
    2.3645    0.4125    0.0000 C   0  0  0  0  0  0  0  0  0  0  0  0
    3.0791   -0.8250    0.0000 C   0  0  0  0  0  0  0  0  0  0  0  0
    1.6500    0.0000    0.0000 C   0  0  0  0  0  0  0  0  0  0  0  0
    2.3645   -1.2375    0.0000 C   0  0  0  0  0  0  0  0  0  0  0  0
    1.6500   -0.8250    0.0000 C   0  0  0  0  0  0  0  0  0  0  0  0
  1 13  1  0  0  0  0
  2  8  1  0  0  0  0
  2 12  1  0  0  0  0
  3  4  1  0  0  0  0
  3  5  1  0  0  0  0
  3  9  1  0  0  0  0
  4  6  1  0  0  0  0
  5  7  1  0  0  0  0
  6  8  1  0  0  0  0
  7  8  2  0  0  0  0
  7 11  1  0  0  0  0
  9 10  1  0  0  0  0
 10 13  1  0  0  0  0
 10 14  2  0  0  0  0
 11 12  2  0  0  0  0
 13 15  2  0  0  0  0
 14 16  1  0  0  0  0
 15 17  1  0  0  0  0
 16 17  2  0  0  0  0
M  END
>  <DRUGBANK_ID>
DB00208

>  <DRUG_GROUPS>
approved

>  <GENERIC_NAME>
Ticlopidine

>  <SYNONYMS>
4-C-32; 53-32C

>  <SALTS>
Ticlopidine Hydrochloride

>  <BRANDS>
Ticlid

>  <CHEMICAL_FORMULA>
C14H14ClNS

>  <MOLECULAR_WEIGHT>
263.786

>  <EXACT_MASS>
263.05354785

>  <IUPAC_NAME>
5-[(2-chlorophenyl)methyl]-4H,5H,6H,7H-thieno[3,2-c]pyridine

>  <INCHI_IDENTIFIER>
InChI=1S/C14H14ClNS/c15-13-4-2-1-3-11(13)9-16-7-5-14-12(10-16)6-8-17-14/h1-4,6,8H,5,7,9-10H2

>  <INCHI_KEY>
InChIKey=PHWBOXQYWZNQIN-UHFFFAOYSA-N

>  <SMILES>
ClC1=CC=CC=C1CN1CCC2=C(C1)C=CS2

>  <JCHEM_ACCEPTOR_COUNT>
1

>  <JCHEM_DONOR_COUNT>
0

>  <JCHEM_BASIC_PKA>
7.31

>  <JCHEM_PHYSIOLOGICAL_CHARGE>
1

>  <ALOGPS_LOGP>
4.25

>  <JCHEM_LOGP>
4.2

>  <ALOGPS_LOGS>
-4.1

>  <JCHEM_POLARIZABILITY>
27.99

>  <JCHEM_POLAR_SURFACE_AREA>
3.24

>  <JCHEM_REFRACTIVITY>
74.33

>  <JCHEM_ROTATABLE_BOND_COUNT>
2

>  <ALOGPS_SOLUBILITY>
2.19e-02 g/l

$$$$
5596
  Mrv0541 02231214312D          

 29 33  0  0  1  0            999 V2000
    7.3397    0.4677    0.0000 O   0  0  0  0  0  0  0  0  0  0  0  0
    6.9699   -0.9125    0.0000 O   0  0  0  0  0  0  0  0  0  0  0  0
    8.5636    0.2542    0.0000 O   0  0  0  0  0  0  0  0  0  0  0  0
    2.9558    0.6113    0.0000 N   0  3  0  0  0  0  0  0  0  0  0  0
    4.7088    1.8208    0.0000 C   0  0  0  0  0  0  0  0  0  0  0  0
    4.4952    1.0238    0.0000 C   0  0  0  0  0  0  0  0  0  0  0  0
    4.4030    2.9334    0.0000 C   0  0  0  0  0  0  0  0  0  0  0  0
    3.6886    2.5209    0.0000 C   0  0  0  0  0  0  0  0  0  0  0  0
    2.8696   -0.2091    0.0000 C   0  0  0  0  0  0  0  0  0  0  0  0
    2.2020    0.9469    0.0000 C   0  0  0  0  0  0  0  0  0  0  0  0
    6.2472    1.4514    0.0000 C   0  0  0  0  0  0  0  0  0  0  0  0
    5.9016    0.1620    0.0000 C   0  0  0  0  0  0  0  0  0  0  0  0
    6.5428    0.6812    0.0000 C   0  0  0  0  0  0  0  0  0  0  0  0
    1.6500    0.3338    0.0000 C   0  0  0  0  0  0  0  0  0  0  0  0
    2.0625   -0.3807    0.0000 C   0  0  0  0  0  0  0  0  0  0  0  0
    7.5532   -0.3292    0.0000 C   0  0  0  0  0  0  0  0  0  0  0  0
    8.3501   -0.5427    0.0000 C   0  0  0  0  0  0  0  0  0  0  0  0
    9.1470   -0.7563    0.0000 C   0  0  0  0  0  0  0  0  0  0  0  0
    8.1366   -1.3397    0.0000 C   0  0  0  0  0  0  0  0  0  0  0  0
    9.7304   -0.1728    0.0000 C   0  0  0  0  0  0  0  0  0  0  0  0
    8.7200   -1.9230    0.0000 C   0  0  0  0  0  0  0  0  0  0  0  0
    9.3606   -1.5532    0.0000 C   0  0  0  0  0  0  0  0  0  0  0  0
    7.3397   -1.5532    0.0000 C   0  0  0  0  0  0  0  0  0  0  0  0
   10.5273   -0.3864    0.0000 C   0  0  0  0  0  0  0  0  0  0  0  0
    8.5065   -2.7199    0.0000 C   0  0  0  0  0  0  0  0  0  0  0  0
   10.1575   -1.7667    0.0000 C   0  0  0  0  0  0  0  0  0  0  0  0
    7.1261   -2.3500    0.0000 C   0  0  0  0  0  0  0  0  0  0  0  0
   10.7408   -1.1833    0.0000 C   0  0  0  0  0  0  0  0  0  0  0  0
    7.7096   -2.9334    0.0000 C   0  0  0  0  0  0  0  0  0  0  0  0
  1 13  1  0  0  0  0
  1 16  1  0  0  0  0
  2 16  2  0  0  0  0
  3 17  1  0  0  0  0
  4  5  1  0  0  0  0
  4  6  1  0  0  0  0
  4  9  1  0  0  0  0
  4 10  1  0  0  0  0
  5  7  1  0  0  0  0
  5 11  1  0  0  0  0
  6  8  1  0  0  0  0
  6 12  1  0  0  0  0
  7  8  1  0  0  0  0
  9 15  1  0  0  0  0
 10 14  1  0  0  0  0
 11 13  1  0  0  0  0
 12 13  1  0  0  0  0
 14 15  1  0  0  0  0
 16 17  1  0  0  0  0
 17 18  1  0  0  0  0
 17 19  1  0  0  0  0
 18 20  2  0  0  0  0
 18 22  1  0  0  0  0
 19 21  2  0  0  0  0
 19 23  1  0  0  0  0
 20 24  1  0  0  0  0
 21 25  1  0  0  0  0
 22 26  2  0  0  0  0
 23 27  2  0  0  0  0
 24 28  2  0  0  0  0
 25 29  2  0  0  0  0
 26 28  1  0  0  0  0
 27 29  1  0  0  0  0
M  CHG  1   4   1
M  END
>  <DRUGBANK_ID>
DB00209

>  <DRUG_GROUPS>
approved

>  <GENERIC_NAME>
Trospium

>  <BRANDS>
Sanctura; Spasmex; Spasmoplex; Trosec

>  <CHEMICAL_FORMULA>
C25H30NO3

>  <MOLECULAR_WEIGHT>
392.5106

>  <EXACT_MASS>
392.222568831

>  <IUPAC_NAME>
3-[(2-hydroxy-2,2-diphenylacetyl)oxy]-8$l^{5}-azaspiro[bicyclo[3.2.1]octane-8,1'-pyrrolidin]-8-ylium

>  <INCHI_IDENTIFIER>
InChI=1S/C25H30NO3/c27-24(25(28,19-9-3-1-4-10-19)20-11-5-2-6-12-20)29-23-17-21-13-14-22(18-23)26(21)15-7-8-16-26/h1-6,9-12,21-23,28H,7-8,13-18H2/q+1

>  <INCHI_KEY>
InChIKey=OYYDSUSKLWTMMQ-UHFFFAOYSA-N

>  <SMILES>
OC(C(=O)OC1CC2CCC(C1)[N+]21CCCC1)(C1=CC=CC=C1)C1=CC=CC=C1

>  <JCHEM_ACCEPTOR_COUNT>
2

>  <JCHEM_DONOR_COUNT>
1

>  <JCHEM_ACIDIC_PKA>
11.05

>  <JCHEM_BASIC_PKA>
-4.5

>  <JCHEM_PHYSIOLOGICAL_CHARGE>
1

>  <ALOGPS_LOGP>
2.86

>  <JCHEM_LOGP>
-0.5

>  <ALOGPS_LOGS>
-6.8

>  <JCHEM_POLARIZABILITY>
43.18

>  <JCHEM_POLAR_SURFACE_AREA>
46.53

>  <JCHEM_REFRACTIVITY>
124.04

>  <JCHEM_ROTATABLE_BOND_COUNT>
5

>  <ALOGPS_SOLUBILITY>
6.68e-05 g/l

$$$$
210
  Mrv0541 02231214312D          

 31 36  0  0  0  0            999 V2000
    2.4469   -3.8851    0.0000 O   0  0  0  0  0  0  0  0  0  0  0  0
    2.9958    3.7168    0.0000 O   0  0  0  0  0  0  0  0  0  0  0  0
    4.3746    3.3417    0.0000 O   0  0  0  0  0  0  0  0  0  0  0  0
    4.0407   -3.4580    0.0000 C   0  0  0  0  0  0  0  0  0  0  0  0
    4.1604   -3.8170    0.0000 C   0  0  0  0  0  0  0  0  0  0  0  0
    5.4205   -3.4580    0.0000 C   0  0  0  0  0  0  0  0  0  0  0  0
    4.7306   -2.2632    0.0000 C   0  0  0  0  0  0  0  0  0  0  0  0
    3.3504   -3.8563    0.0000 C   0  0  0  0  0  0  0  0  0  0  0  0
    4.7306   -3.7078    0.0000 C   0  0  0  0  0  0  0  0  0  0  0  0
    4.0407   -2.6615    0.0000 C   0  0  0  0  0  0  0  0  0  0  0  0
    4.9076   -4.2103    0.0000 C   0  0  0  0  0  0  0  0  0  0  0  0
    4.1604   -2.9546    0.0000 C   0  0  0  0  0  0  0  0  0  0  0  0
    5.4205   -2.6615    0.0000 C   0  0  0  0  0  0  0  0  0  0  0  0
    3.4574   -2.8747    0.0000 C   0  0  0  0  0  0  0  0  0  0  0  0
    2.6604   -3.0883    0.0000 C   0  0  0  0  0  0  0  0  0  0  0  0
    3.6709   -2.0778    0.0000 C   0  0  0  0  0  0  0  0  0  0  0  0
    3.0875   -1.4944    0.0000 C   0  0  0  0  0  0  0  0  0  0  0  0
    2.0770   -2.5049    0.0000 C   0  0  0  0  0  0  0  0  0  0  0  0
    2.2906   -1.7079    0.0000 C   0  0  0  0  0  0  0  0  0  0  0  0
    3.3010   -0.6975    0.0000 C   0  0  0  0  0  0  0  0  0  0  0  0
    1.6500   -4.0986    0.0000 C   0  0  0  0  0  0  0  0  0  0  0  0
    2.7177   -0.1142    0.0000 C   0  0  0  0  0  0  0  0  0  0  0  0
    4.0979   -0.4840    0.0000 C   0  0  0  0  0  0  0  0  0  0  0  0
    2.9312    0.6828    0.0000 C   0  0  0  0  0  0  0  0  0  0  0  0
    4.3114    0.3129    0.0000 C   0  0  0  0  0  0  0  0  0  0  0  0
    3.7280    0.8963    0.0000 C   0  0  0  0  0  0  0  0  0  0  0  0
    2.3142    1.2810    0.0000 C   0  0  0  0  0  0  0  0  0  0  0  0
    3.9633    1.7228    0.0000 C   0  0  0  0  0  0  0  0  0  0  0  0
    2.5302    2.1127    0.0000 C   0  0  0  0  0  0  0  0  0  0  0  0
    3.3603    2.3351    0.0000 C   0  0  0  0  0  0  0  0  0  0  0  0
    3.5769    3.1312    0.0000 C   0  0  0  0  0  0  0  0  0  0  0  0
  1 15  1  0  0  0  0
  1 21  1  0  0  0  0
  2 31  1  0  0  0  0
  3 31  2  0  0  0  0
  4  8  1  0  0  0  0
  4  9  1  0  0  0  0
  4 10  1  0  0  0  0
  4 14  1  0  0  0  0
  5  8  1  0  0  0  0
  5 11  1  0  0  0  0
  5 12  1  0  0  0  0
  6  9  1  0  0  0  0
  6 11  1  0  0  0  0
  6 13  1  0  0  0  0
  7 10  1  0  0  0  0
  7 12  1  0  0  0  0
  7 13  1  0  0  0  0
 14 15  2  0  0  0  0
 14 16  1  0  0  0  0
 15 18  1  0  0  0  0
 16 17  2  0  0  0  0
 17 19  1  0  0  0  0
 17 20  1  0  0  0  0
 18 19  2  0  0  0  0
 20 22  2  0  0  0  0
 20 23  1  0  0  0  0
 22 24  1  0  0  0  0
 23 25  2  0  0  0  0
 24 26  2  0  0  0  0
 24 27  1  0  0  0  0
 25 26  1  0  0  0  0
 26 28  1  0  0  0  0
 27 29  2  0  0  0  0
 28 30  2  0  0  0  0
 29 30  1  0  0  0  0
 30 31  1  0  0  0  0
M  END
>  <DRUGBANK_ID>
DB00210

>  <DRUG_GROUPS>
approved

>  <GENERIC_NAME>
Adapalene

>  <SYNONYMS>
Adapaleno [INN-Spanish]; Adapalenum [INN-Latin]

>  <BRANDS>
Adaferin; Differin

>  <CHEMICAL_FORMULA>
C28H28O3

>  <MOLECULAR_WEIGHT>
412.5201

>  <EXACT_MASS>
412.203844762

>  <IUPAC_NAME>
6-[3-(adamantan-1-yl)-4-methoxyphenyl]naphthalene-2-carboxylic acid

>  <INCHI_IDENTIFIER>
InChI=1S/C28H28O3/c1-31-26-7-6-23(21-2-3-22-12-24(27(29)30)5-4-20(22)11-21)13-25(26)28-14-17-8-18(15-28)10-19(9-17)16-28/h2-7,11-13,17-19H,8-10,14-16H2,1H3,(H,29,30)

>  <INCHI_KEY>
InChIKey=LZCDAPDGXCYOEH-UHFFFAOYSA-N

>  <SMILES>
COC1=C(C=C(C=C1)C1=CC2=C(C=C1)C=C(C=C2)C(O)=O)C12CC3CC(CC(C3)C1)C2

>  <JCHEM_ACCEPTOR_COUNT>
3

>  <JCHEM_DONOR_COUNT>
1

>  <JCHEM_ACIDIC_PKA>
3.99

>  <JCHEM_BASIC_PKA>
-4.8

>  <JCHEM_PHYSIOLOGICAL_CHARGE>
-1

>  <ALOGPS_LOGP>
6.06

>  <JCHEM_LOGP>
6.46

>  <ALOGPS_LOGS>
-8

>  <JCHEM_POLARIZABILITY>
47.65

>  <JCHEM_POLAR_SURFACE_AREA>
46.53

>  <JCHEM_REFRACTIVITY>
122.07

>  <JCHEM_ROTATABLE_BOND_COUNT>
4

>  <ALOGPS_SOLUBILITY>
4.01e-06 g/l

$$$$
211
  Mrv0541 02231214312D          

 18 18  0  0  1  0            999 V2000
    3.0791    0.3630    0.0000 O   0  0  0  0  0  0  0  0  0  0  0  0
    2.3645   -0.8745    0.0000 O   0  0  0  0  0  0  0  0  0  0  0  0
    5.2224   -2.5246    0.0000 O   0  0  0  0  0  0  0  0  0  0  0  0
    5.9370    1.1880    0.0000 O   0  0  0  0  0  0  0  0  0  0  0  0
    4.5080    1.1880    0.0000 N   0  0  0  0  0  0  0  0  0  0  0  0
    5.9370    2.8381    0.0000 N   0  0  0  0  0  0  0  0  0  0  0  0
    3.7935   -0.0495    0.0000 C   0  0  0  0  0  0  0  0  0  0  0  0
    3.7935   -0.8745    0.0000 C   0  0  0  0  0  0  0  0  0  0  0  0
    4.5080    0.3630    0.0000 C   0  0  0  0  0  0  0  0  0  0  0  0
    3.0791   -1.2870    0.0000 C   0  0  0  0  0  0  0  0  0  0  0  0
    4.5080   -1.2870    0.0000 C   0  0  0  0  0  0  0  0  0  0  0  0
    4.5080   -2.1120    0.0000 C   0  0  0  0  0  0  0  0  0  0  0  0
    3.0791   -2.1120    0.0000 C   0  0  0  0  0  0  0  0  0  0  0  0
    3.7935   -2.5246    0.0000 C   0  0  0  0  0  0  0  0  0  0  0  0
    5.2224    1.6005    0.0000 C   0  0  0  0  0  0  0  0  0  0  0  0
    5.2224    2.4256    0.0000 C   0  0  0  0  0  0  0  0  0  0  0  0
    1.6500   -1.2870    0.0000 C   0  0  0  0  0  0  0  0  0  0  0  0
    5.2224   -3.3496    0.0000 C   0  0  0  0  0  0  0  0  0  0  0  0
  1  7  1  0  0  0  0
  2 10  1  0  0  0  0
  2 17  1  0  0  0  0
  3 12  1  0  0  0  0
  3 18  1  0  0  0  0
  4 15  2  0  0  0  0
  5  9  1  0  0  0  0
  5 15  1  0  0  0  0
  6 16  1  0  0  0  0
  7  8  1  0  0  0  0
  7  9  1  0  0  0  0
  8 10  2  0  0  0  0
  8 11  1  0  0  0  0
 10 13  1  0  0  0  0
 11 12  2  0  0  0  0
 12 14  1  0  0  0  0
 13 14  2  0  0  0  0
 15 16  1  0  0  0  0
M  END
>  <DRUGBANK_ID>
DB00211

>  <DRUG_GROUPS>
approved

>  <GENERIC_NAME>
Midodrine

>  <SYNONYMS>
Midodrin; Midodrina [INN-Spanish]; Midodrine HCL; midodrine hydrochloride; Midodrinum [INN-Latin]

>  <BRANDS>
ProAmatine

>  <CHEMICAL_FORMULA>
C12H18N2O4

>  <MOLECULAR_WEIGHT>
254.2823

>  <EXACT_MASS>
254.126657074

>  <IUPAC_NAME>
2-amino-N-[2-(2,5-dimethoxyphenyl)-2-hydroxyethyl]acetamide

>  <INCHI_IDENTIFIER>
InChI=1S/C12H18N2O4/c1-17-8-3-4-11(18-2)9(5-8)10(15)7-14-12(16)6-13/h3-5,10,15H,6-7,13H2,1-2H3,(H,14,16)

>  <INCHI_KEY>
InChIKey=PTKSEFOSCHHMPD-UHFFFAOYSA-N

>  <SMILES>
COC1=CC(C(O)CNC(=O)CN)=C(OC)C=C1

>  <JCHEM_ACCEPTOR_COUNT>
5

>  <JCHEM_DONOR_COUNT>
3

>  <JCHEM_ACIDIC_PKA>
13.77

>  <JCHEM_BASIC_PKA>
8.14

>  <JCHEM_PHYSIOLOGICAL_CHARGE>
1

>  <ALOGPS_LOGP>
-0.49

>  <JCHEM_LOGP>
-0.95

>  <ALOGPS_LOGS>
-1.8

>  <JCHEM_POLARIZABILITY>
26.65

>  <JCHEM_POLAR_SURFACE_AREA>
93.81

>  <JCHEM_REFRACTIVITY>
66.22

>  <JCHEM_ROTATABLE_BOND_COUNT>
6

>  <ALOGPS_SOLUBILITY>
4.45e+00 g/l

$$$$
212
  Mrv0541 02231214312D          

 44 47  0  0  1  0            999 V2000
    6.3799    1.9668    0.0000 S   0  0  0  0  0  0  0  0  0  0  0  0
    2.0930    0.3168    0.0000 O   0  0  0  0  0  0  0  0  0  0  0  0
    4.2365    0.7293    0.0000 O   0  0  0  0  0  0  0  0  0  0  0  0
    4.9509    0.3168    0.0000 O   0  0  0  0  0  0  0  0  0  0  0  0
    5.9674    1.2523    0.0000 O   0  0  0  0  0  0  0  0  0  0  0  0
    5.6655    2.3794    0.0000 O   0  0  0  0  0  0  0  0  0  0  0  0
    5.6655    0.7293    0.0000 O   0  0  0  0  0  0  0  0  0  0  0  0
    4.2365   -0.9207    0.0000 N   0  0  0  0  0  0  0  0  0  0  0  0
    6.3799   -0.5082    0.0000 N   0  0  0  0  0  0  0  0  0  0  0  0
    6.4662   -2.9787    0.0000 N   0  0  0  0  0  0  0  0  0  0  0  0
    7.6857   -2.4358    0.0000 N   0  0  0  0  0  0  0  0  0  0  0  0
    2.8075    1.5543    0.0000 C   0  0  0  0  0  0  0  0  0  0  0  0
    3.2200    2.2688    0.0000 C   0  0  0  0  0  0  0  0  0  0  0  0
    2.3950    2.2688    0.0000 C   0  0  0  0  0  0  0  0  0  0  0  0
    2.8075    0.7293    0.0000 C   0  0  2  0  0  0  0  0  0  0  0  0
    3.5220    0.3168    0.0000 C   0  0  2  0  0  0  0  0  0  0  0  0
    3.5220   -0.5082    0.0000 C   0  0  1  0  0  0  0  0  0  0  0  0
    2.8075   -1.7457    0.0000 C   0  0  0  0  0  0  0  0  0  0  0  0
    2.8075   -0.9207    0.0000 C   0  0  0  0  0  0  0  0  0  0  0  0
    2.0930   -2.1582    0.0000 C   0  0  0  0  0  0  0  0  0  0  0  0
    3.5220   -2.1582    0.0000 C   0  0  0  0  0  0  0  0  0  0  0  0
    2.0930   -2.9833    0.0000 C   0  0  0  0  0  0  0  0  0  0  0  0
    3.5220   -2.9833    0.0000 C   0  0  0  0  0  0  0  0  0  0  0  0
    2.8075   -3.3958    0.0000 C   0  0  0  0  0  0  0  0  0  0  0  0
    4.9509   -0.5082    0.0000 C   0  0  0  0  0  0  0  0  0  0  0  0
    5.6655   -0.9207    0.0000 C   0  0  2  0  0  0  0  0  0  0  0  0
    5.6655   -1.7457    0.0000 C   0  0  0  0  0  0  0  0  0  0  0  0
    7.0944    0.7293    0.0000 C   0  0  1  0  0  0  0  0  0  0  0  0
    7.0944    1.5543    0.0000 C   0  0  0  0  0  0  0  0  0  0  0  0
    6.7925    2.6813    0.0000 C   0  0  0  0  0  0  0  0  0  0  0  0
    6.3799    0.3168    0.0000 C   0  0  0  0  0  0  0  0  0  0  0  0
    7.8089    0.3168    0.0000 C   0  0  0  0  0  0  0  0  0  0  0  0
    6.3799   -2.1582    0.0000 C   0  0  0  0  0  0  0  0  0  0  0  0
    7.5069    2.2688    0.0000 C   0  0  0  0  0  0  0  0  0  0  0  0
    6.0780    3.0938    0.0000 C   0  0  0  0  0  0  0  0  0  0  0  0
    7.2050    3.3958    0.0000 C   0  0  0  0  0  0  0  0  0  0  0  0
    8.5234    0.7293    0.0000 C   0  0  0  0  0  0  0  0  0  0  0  0
    7.1336   -1.8227    0.0000 C   0  0  0  0  0  0  0  0  0  0  0  0
    9.2379    0.3168    0.0000 C   0  0  0  0  0  0  0  0  0  0  0  0
    8.5234    1.5543    0.0000 C   0  0  0  0  0  0  0  0  0  0  0  0
    7.2732   -3.1503    0.0000 C   0  0  0  0  0  0  0  0  0  0  0  0
    9.9524    0.7293    0.0000 C   0  0  0  0  0  0  0  0  0  0  0  0
    9.2379    1.9668    0.0000 C   0  0  0  0  0  0  0  0  0  0  0  0
    9.9524    1.5543    0.0000 C   0  0  0  0  0  0  0  0  0  0  0  0
  1  5  2  0  0  0  0
  1  6  2  0  0  0  0
  1 29  1  0  0  0  0
  1 30  1  0  0  0  0
 15  2  1  6  0  0  0
 16  3  1  1  0  0  0
  4 25  2  0  0  0  0
  7 31  2  0  0  0  0
 17  8  1  6  0  0  0
  8 25  1  0  0  0  0
 26  9  1  1  0  0  0
  9 31  1  0  0  0  0
 10 33  1  0  0  0  0
 10 41  1  0  0  0  0
 11 38  1  0  0  0  0
 11 41  2  0  0  0  0
 12 13  1  0  0  0  0
 12 14  1  0  0  0  0
 12 15  1  0  0  0  0
 13 14  1  0  0  0  0
 15 16  1  0  0  0  0
 16 17  1  0  0  0  0
 17 19  1  0  0  0  0
 18 19  1  0  0  0  0
 18 20  1  0  0  0  0
 18 21  1  0  0  0  0
 20 22  1  0  0  0  0
 21 23  1  0  0  0  0
 22 24  1  0  0  0  0
 23 24  1  0  0  0  0
 25 26  1  0  0  0  0
 26 27  1  0  0  0  0
 27 33  1  0  0  0  0
 28 29  1  6  0  0  0
 28 31  1  0  0  0  0
 28 32  1  0  0  0  0
 30 34  1  0  0  0  0
 30 35  1  0  0  0  0
 30 36  1  0  0  0  0
 32 37  1  0  0  0  0
 33 38  2  0  0  0  0
 37 39  2  0  0  0  0
 37 40  1  0  0  0  0
 39 42  1  0  0  0  0
 40 43  2  0  0  0  0
 42 44  2  0  0  0  0
 43 44  1  0  0  0  0
M  END
>  <DRUGBANK_ID>
DB00212

>  <DRUG_GROUPS>
approved

>  <GENERIC_NAME>
Remikiren

>  <SYNONYMS>
Ro 42-5892

>  <CHEMICAL_FORMULA>
C33H50N4O6S

>  <MOLECULAR_WEIGHT>
630.838

>  <EXACT_MASS>
630.345106042

>  <IUPAC_NAME>
(2S)-2-[(2R)-2-benzyl-3-(2-methylpropane-2-sulfonyl)propanamido]-N-[(2R,3S,4R)-1-cyclohexyl-4-cyclopropyl-3,4-dihydroxybutan-2-yl]-3-(1H-imidazol-5-yl)propanamide

>  <INCHI_IDENTIFIER>
InChI=1S/C33H50N4O6S/c1-33(2,3)44(42,43)20-25(16-22-10-6-4-7-11-22)31(40)37-28(18-26-19-34-21-35-26)32(41)36-27(17-23-12-8-5-9-13-23)30(39)29(38)24-14-15-24/h4,6-7,10-11,19,21,23-25,27-30,38-39H,5,8-9,12-18,20H2,1-3H3,(H,34,35)(H,36,41)(H,37,40)/t25-,27+,28-,29+,30-/m0/s1

>  <INCHI_KEY>
InChIKey=UXIGZRQVLGFTOU-PUNKFERVSA-N

>  <SMILES>
CC(C)(C)S(=O)(=O)C[C@H](CC1=CC=CC=C1)C(=O)N[C@@H](CC1=CN=CN1)C(=O)N[C@H](CC1CCCCC1)[C@H](O)[C@H](O)C1CC1

>  <JCHEM_ACCEPTOR_COUNT>
7

>  <JCHEM_DONOR_COUNT>
5

>  <JCHEM_ACIDIC_PKA>
12.32

>  <JCHEM_BASIC_PKA>
6.74

>  <JCHEM_PHYSIOLOGICAL_CHARGE>
0

>  <ALOGPS_LOGP>
2.42

>  <JCHEM_LOGP>
2.37

>  <ALOGPS_LOGS>
-4.5

>  <JCHEM_POLARIZABILITY>
68.67

>  <JCHEM_POLAR_SURFACE_AREA>
161.48

>  <JCHEM_REFRACTIVITY>
169.6

>  <JCHEM_ROTATABLE_BOND_COUNT>
16

>  <ALOGPS_SOLUBILITY>
2.13e-02 g/l

$$$$
213
  Mrv0541 02231214312D          

 26 28  0  0  1  0            999 V2000
    7.3097    0.0000    0.0000 S   0  0  0  0  0  0  0  0  0  0  0  0
    2.3645   -0.4125    0.0000 F   0  0  0  0  0  0  0  0  0  0  0  0
    1.6500    0.8250    0.0000 F   0  0  0  0  0  0  0  0  0  0  0  0
    8.5472    0.7145    0.0000 O   0  0  0  0  0  0  0  0  0  0  0  0
    3.0791    0.8250    0.0000 O   0  0  0  0  0  0  0  0  0  0  0  0
    7.7222    0.7145    0.0000 O   0  0  0  0  0  0  0  0  0  0  0  0
   10.1972    0.7145    0.0000 O   0  0  0  0  0  0  0  0  0  0  0  0
    6.0031    0.6639    0.0000 N   0  0  0  0  0  0  0  0  0  0  0  0
    6.0031   -0.6639    0.0000 N   0  0  0  0  0  0  0  0  0  0  0  0
    8.9597   -1.4290    0.0000 N   0  0  0  0  0  0  0  0  0  0  0  0
    5.2224    0.4125    0.0000 C   0  0  0  0  0  0  0  0  0  0  0  0
    6.4846    0.0000    0.0000 C   0  0  0  0  0  0  0  0  0  0  0  0
    5.2224   -0.4125    0.0000 C   0  0  0  0  0  0  0  0  0  0  0  0
    7.7222   -0.7145    0.0000 C   0  0  0  0  0  0  0  0  0  0  0  0
    8.5472   -0.7145    0.0000 C   0  0  0  0  0  0  0  0  0  0  0  0
    4.5080    0.8250    0.0000 C   0  0  0  0  0  0  0  0  0  0  0  0
    4.5080   -0.8250    0.0000 C   0  0  0  0  0  0  0  0  0  0  0  0
    8.9597    0.0000    0.0000 C   0  0  0  0  0  0  0  0  0  0  0  0
    3.7935    0.4125    0.0000 C   0  0  0  0  0  0  0  0  0  0  0  0
    3.7935   -0.4125    0.0000 C   0  0  0  0  0  0  0  0  0  0  0  0
    9.7847    0.0000    0.0000 C   0  0  0  0  0  0  0  0  0  0  0  0
   10.1972   -0.7145    0.0000 C   0  0  0  0  0  0  0  0  0  0  0  0
    9.7847   -1.4290    0.0000 C   0  0  0  0  0  0  0  0  0  0  0  0
    8.9597    1.4290    0.0000 C   0  0  0  0  0  0  0  0  0  0  0  0
    2.3645    0.4125    0.0000 C   0  0  0  0  0  0  0  0  0  0  0  0
   11.0222    0.7145    0.0000 C   0  0  0  0  0  0  0  0  0  0  0  0
  1  6  2  0  0  0  0
  1 12  1  0  0  0  0
  1 14  1  0  0  0  0
  2 25  1  0  0  0  0
  3 25  1  0  0  0  0
  4 18  1  0  0  0  0
  4 24  1  0  0  0  0
  5 19  1  0  0  0  0
  5 25  1  0  0  0  0
  7 21  1  0  0  0  0
  7 26  1  0  0  0  0
  8 11  1  0  0  0  0
  8 12  1  0  0  0  0
  9 12  2  0  0  0  0
  9 13  1  0  0  0  0
 10 15  2  0  0  0  0
 10 23  1  0  0  0  0
 11 13  2  0  0  0  0
 11 16  1  0  0  0  0
 13 17  1  0  0  0  0
 14 15  1  0  0  0  0
 15 18  1  0  0  0  0
 16 19  2  0  0  0  0
 17 20  2  0  0  0  0
 18 21  2  0  0  0  0
 19 20  1  0  0  0  0
 21 22  1  0  0  0  0
 22 23  2  0  0  0  0
M  END
>  <DRUGBANK_ID>
DB00213

>  <DRUG_GROUPS>
approved

>  <GENERIC_NAME>
Pantoprazole

>  <SYNONYMS>
Pantoprazol [INN-Spanish]; Pantoprazole Na; Pantoprazole Sodium; Pantoprazolum [INN-Latin]; Pantoprozole

>  <BRANDS>
Astropan; Pantoloc; Pantor; Pantozol; Protium; Protonix; Protonix IV

>  <CHEMICAL_FORMULA>
C16H15F2N3O4S

>  <MOLECULAR_WEIGHT>
383.37

>  <EXACT_MASS>
383.075133083

>  <IUPAC_NAME>
6-(difluoromethoxy)-2-{[(3,4-dimethoxypyridin-2-yl)methane]sulfinyl}-1H-1,3-benzodiazole

>  <INCHI_IDENTIFIER>
InChI=1S/C16H15F2N3O4S/c1-23-13-5-6-19-12(14(13)24-2)8-26(22)16-20-10-4-3-9(25-15(17)18)7-11(10)21-16/h3-7,15H,8H2,1-2H3,(H,20,21)

>  <INCHI_KEY>
InChIKey=IQPSEEYGBUAQFF-UHFFFAOYSA-N

>  <SMILES>
COC1=C(OC)C(CS(=O)C2=NC3=C(N2)C=C(OC(F)F)C=C3)=NC=C1

>  <JCHEM_ACCEPTOR_COUNT>
6

>  <JCHEM_DONOR_COUNT>
1

>  <JCHEM_ACIDIC_PKA>
9.15

>  <JCHEM_BASIC_PKA>
3.55

>  <JCHEM_PHYSIOLOGICAL_CHARGE>
0

>  <ALOGPS_LOGP>
2.11

>  <JCHEM_LOGP>
2.18

>  <ALOGPS_LOGS>
-2.9

>  <JCHEM_POLARIZABILITY>
35.17

>  <JCHEM_POLAR_SURFACE_AREA>
86.33

>  <JCHEM_REFRACTIVITY>
90.05

>  <JCHEM_ROTATABLE_BOND_COUNT>
7

>  <ALOGPS_SOLUBILITY>
4.95e-01 g/l

$$$$
214
  Mrv0541 02231214312D          

 24 25  0  0  0  0            999 V2000
    5.9363   -0.4125    0.0000 S   0  0  0  0  0  0  0  0  0  0  0  0
    5.1114   -0.4125    0.0000 O   0  0  0  0  0  0  0  0  0  0  0  0
    6.7612   -0.4125    0.0000 O   0  0  0  0  0  0  0  0  0  0  0  0
    7.3650    0.4125    0.0000 O   0  0  0  0  0  0  0  0  0  0  0  0
    6.6507    1.6498    0.0000 N   0  0  0  0  0  0  0  0  0  0  0  0
    4.5075   -1.2374    0.0000 N   0  0  0  0  0  0  0  0  0  0  0  0
    5.9363    0.4125    0.0000 N   0  0  0  0  0  0  0  0  0  0  0  0
    6.6507   -2.4748    0.0000 N   0  0  0  0  0  0  0  0  0  0  0  0
    7.3650    2.0623    0.0000 C   0  0  0  0  0  0  0  0  0  0  0  0
    5.9363   -1.2374    0.0000 C   0  0  0  0  0  0  0  0  0  0  0  0
    5.2218   -1.6498    0.0000 C   0  0  0  0  0  0  0  0  0  0  0  0
    3.7930   -1.6498    0.0000 C   0  0  0  0  0  0  0  0  0  0  0  0
    7.3650    2.8873    0.0000 C   0  0  0  0  0  0  0  0  0  0  0  0
    8.0794    1.6498    0.0000 C   0  0  0  0  0  0  0  0  0  0  0  0
    6.6507    0.8249    0.0000 C   0  0  0  0  0  0  0  0  0  0  0  0
    6.6507   -1.6498    0.0000 C   0  0  0  0  0  0  0  0  0  0  0  0
    5.2218   -2.4748    0.0000 C   0  0  0  0  0  0  0  0  0  0  0  0
    3.0787   -1.2374    0.0000 C   0  0  0  0  0  0  0  0  0  0  0  0
    2.3642   -1.6498    0.0000 C   0  0  0  0  0  0  0  0  0  0  0  0
    3.7930   -2.4748    0.0000 C   0  0  0  0  0  0  0  0  0  0  0  0
    5.9363   -2.8873    0.0000 C   0  0  0  0  0  0  0  0  0  0  0  0
    2.3642   -2.4748    0.0000 C   0  0  0  0  0  0  0  0  0  0  0  0
    3.0787   -2.8873    0.0000 C   0  0  0  0  0  0  0  0  0  0  0  0
    1.6498   -1.2374    0.0000 C   0  0  0  0  0  0  0  0  0  0  0  0
  1  2  2  0  0  0  0
  1  3  2  0  0  0  0
  1  7  1  0  0  0  0
  1 10  1  0  0  0  0
  4 15  2  0  0  0  0
  5  9  1  0  0  0  0
  5 15  1  0  0  0  0
  6 11  1  0  0  0  0
  6 12  1  0  0  0  0
  7 15  1  0  0  0  0
  8 16  2  0  0  0  0
  8 21  1  0  0  0  0
  9 13  1  0  0  0  0
  9 14  1  0  0  0  0
 10 11  2  0  0  0  0
 10 16  1  0  0  0  0
 11 17  1  0  0  0  0
 12 18  1  0  0  0  0
 12 20  2  0  0  0  0
 17 21  2  0  0  0  0
 18 19  2  0  0  0  0
 19 22  1  0  0  0  0
 19 24  1  0  0  0  0
 20 23  1  0  0  0  0
 22 23  2  0  0  0  0
M  END
>  <DRUGBANK_ID>
DB00214

>  <DRUG_GROUPS>
approved

>  <GENERIC_NAME>
Torasemide

>  <SYNONYMS>
Torasemida [INN-Spanish]; Torasemidum [INN-Latin]; Torsemide

>  <BRANDS>
Demadex; Luprac

>  <CHEMICAL_FORMULA>
C16H20N4O3S

>  <MOLECULAR_WEIGHT>
348.42

>  <EXACT_MASS>
348.125611216

>  <IUPAC_NAME>
1-{4-[(3-methylphenyl)amino]pyridine-3-sulfonyl}-3-(propan-2-yl)urea

>  <INCHI_IDENTIFIER>
InChI=1S/C16H20N4O3S/c1-11(2)18-16(21)20-24(22,23)15-10-17-8-7-14(15)19-13-6-4-5-12(3)9-13/h4-11H,1-3H3,(H,17,19)(H2,18,20,21)

>  <INCHI_KEY>
InChIKey=NGBFQHCMQULJNZ-UHFFFAOYSA-N

>  <SMILES>
CC(C)NC(=O)NS(=O)(=O)C1=C(NC2=CC=CC(C)=C2)C=CN=C1

>  <JCHEM_ACCEPTOR_COUNT>
5

>  <JCHEM_DONOR_COUNT>
3

>  <JCHEM_ACIDIC_PKA>
5.92

>  <JCHEM_BASIC_PKA>
4.2

>  <JCHEM_PHYSIOLOGICAL_CHARGE>
-1

>  <ALOGPS_LOGP>
1.76

>  <JCHEM_LOGP>
1.86

>  <ALOGPS_LOGS>
-3.8

>  <JCHEM_POLARIZABILITY>
36.15

>  <JCHEM_POLAR_SURFACE_AREA>
100.19

>  <JCHEM_REFRACTIVITY>
91.89

>  <JCHEM_ROTATABLE_BOND_COUNT>
4

>  <ALOGPS_SOLUBILITY>
5.96e-02 g/l

$$$$
215
  Mrv0541 02231214312D          

 24 26  0  0  1  0            999 V2000
    7.9618    1.5353    0.0000 F   0  0  0  0  0  0  0  0  0  0  0  0
    5.7701   -1.0638    0.0000 O   0  0  0  0  0  0  0  0  0  0  0  0
    3.1681    1.5162    0.0000 N   0  0  0  0  0  0  0  0  0  0  0  0
    1.6500   -2.3013    0.0000 N   0  0  0  0  0  0  0  0  0  0  0  0
    5.2886   -0.3998    0.0000 C   0  0  0  0  0  0  0  0  0  0  0  0
    5.0351    0.3853    0.0000 C   0  0  0  0  0  0  0  0  0  0  0  0
    4.5080   -0.6513    0.0000 C   0  0  0  0  0  0  0  0  0  0  0  0
    4.5080   -1.4763    0.0000 C   0  0  0  0  0  0  0  0  0  0  0  0
    4.2284    0.5582    0.0000 C   0  0  0  0  0  0  0  0  0  0  0  0
    5.9569    0.0840    0.0000 C   0  0  0  0  0  0  0  0  0  0  0  0
    5.2886   -1.7277    0.0000 C   0  0  0  0  0  0  0  0  0  0  0  0
    3.9748    1.3433    0.0000 C   0  0  0  0  0  0  0  0  0  0  0  0
    3.7935   -0.2388    0.0000 C   0  0  0  0  0  0  0  0  0  0  0  0
    3.7935   -1.8888    0.0000 C   0  0  0  0  0  0  0  0  0  0  0  0
    5.8721    0.9046    0.0000 C   0  0  0  0  0  0  0  0  0  0  0  0
    6.7100   -0.2529    0.0000 C   0  0  0  0  0  0  0  0  0  0  0  0
    3.0790   -0.6513    0.0000 C   0  0  0  0  0  0  0  0  0  0  0  0
    3.0790   -1.4763    0.0000 C   0  0  0  0  0  0  0  0  0  0  0  0
    6.5404    1.3883    0.0000 C   0  0  0  0  0  0  0  0  0  0  0  0
    7.3783    0.2308    0.0000 C   0  0  0  0  0  0  0  0  0  0  0  0
    7.2935    1.0515    0.0000 C   0  0  0  0  0  0  0  0  0  0  0  0
    2.9145    2.3013    0.0000 C   0  0  0  0  0  0  0  0  0  0  0  0
    2.6150    0.9041    0.0000 C   0  0  0  0  0  0  0  0  0  0  0  0
    2.3645   -1.8888    0.0000 C   0  0  0  0  0  0  0  0  0  0  0  0
  1 21  1  0  0  0  0
  2  5  1  0  0  0  0
  2 11  1  0  0  0  0
  3 12  1  0  0  0  0
  3 22  1  0  0  0  0
  3 23  1  0  0  0  0
  4 24  3  0  0  0  0
  5  6  1  0  0  0  0
  5  7  1  0  0  0  0
  5 10  1  0  0  0  0
  6  9  1  0  0  0  0
  7  8  2  0  0  0  0
  7 13  1  0  0  0  0
  8 11  1  0  0  0  0
  8 14  1  0  0  0  0
  9 12  1  0  0  0  0
 10 15  2  0  0  0  0
 10 16  1  0  0  0  0
 13 17  2  0  0  0  0
 14 18  2  0  0  0  0
 15 19  1  0  0  0  0
 16 20  2  0  0  0  0
 17 18  1  0  0  0  0
 18 24  1  0  0  0  0
 19 21  2  0  0  0  0
 20 21  1  0  0  0  0
M  END
>  <DRUGBANK_ID>
DB00215

>  <DRUG_GROUPS>
approved

>  <GENERIC_NAME>
Citalopram

>  <SYNONYMS>
Citalopram Hydrobromide; Citalopramum [INN-Latin]

>  <BRANDS>
Akarin; Celapram; Celexa; Celius; Ciazil; Cilift; Cipram; Cipramil; Ciprapine; Citabax; Citalec; Citol; Citopam; Citox; Citrol; Dalsan; Elopram; Humorup; Nitalapram; Oropram; Pramcit; Recital; Seropram; Talam; Talohexal; Temperax; Vodelax; Zentius; Zetalo

>  <CHEMICAL_FORMULA>
C20H21FN2O

>  <MOLECULAR_WEIGHT>
324.3919

>  <EXACT_MASS>
324.163791509

>  <IUPAC_NAME>
1-[3-(dimethylamino)propyl]-1-(4-fluorophenyl)-1,3-dihydro-2-benzofuran-5-carbonitrile

>  <INCHI_IDENTIFIER>
InChI=1S/C20H21FN2O/c1-23(2)11-3-10-20(17-5-7-18(21)8-6-17)19-9-4-15(13-22)12-16(19)14-24-20/h4-9,12H,3,10-11,14H2,1-2H3

>  <INCHI_KEY>
InChIKey=WSEQXVZVJXJVFP-UHFFFAOYSA-N

>  <SMILES>
CN(C)CCCC1(OCC2=C1C=CC(=C2)C#N)C1=CC=C(F)C=C1

>  <JCHEM_ACCEPTOR_COUNT>
3

>  <JCHEM_DONOR_COUNT>
0

>  <JCHEM_BASIC_PKA>
9.78

>  <JCHEM_PHYSIOLOGICAL_CHARGE>
1

>  <ALOGPS_LOGP>
3.58

>  <JCHEM_LOGP>
3.76

>  <ALOGPS_LOGS>
-4.7

>  <JCHEM_POLARIZABILITY>
35.4

>  <JCHEM_POLAR_SURFACE_AREA>
36.26

>  <JCHEM_REFRACTIVITY>
94.02

>  <JCHEM_ROTATABLE_BOND_COUNT>
5

>  <ALOGPS_SOLUBILITY>
5.88e-03 g/l

$$$$
77993
  Mrv0541 02231214312D          

 27 30  0  0  1  0            999 V2000
    3.7935    0.1625    0.0000 S   0  0  0  0  0  0  0  0  0  0  0  0
    3.3810   -0.5519    0.0000 O   0  0  0  0  0  0  0  0  0  0  0  0
    4.2060    0.8770    0.0000 O   0  0  0  0  0  0  0  0  0  0  0  0
    9.8223    0.4027    0.0000 N   0  0  0  0  0  0  0  0  0  0  0  0
    8.1466   -1.3264    0.0000 N   0  0  0  0  0  0  0  0  0  0  0  0
    9.2102    0.9558    0.0000 C   0  0  2  0  0  0  0  0  0  0  0  0
    9.5470    1.7089    0.0000 C   0  0  0  0  0  0  0  0  0  0  0  0
   10.3673    1.6212    0.0000 C   0  0  0  0  0  0  0  0  0  0  0  0
   10.5375    0.8140    0.0000 C   0  0  0  0  0  0  0  0  0  0  0  0
    8.4029    0.7857    0.0000 C   0  0  0  0  0  0  0  0  0  0  0  0
    8.1466    0.0015    0.0000 C   0  0  0  0  0  0  0  0  0  0  0  0
    9.7346   -0.4177    0.0000 C   0  0  0  0  0  0  0  0  0  0  0  0
    7.3659   -0.2500    0.0000 C   0  0  0  0  0  0  0  0  0  0  0  0
    8.6280   -0.6625    0.0000 C   0  0  0  0  0  0  0  0  0  0  0  0
    7.3659   -1.0750    0.0000 C   0  0  0  0  0  0  0  0  0  0  0  0
    6.6515    0.1625    0.0000 C   0  0  0  0  0  0  0  0  0  0  0  0
    5.9370   -0.2500    0.0000 C   0  0  0  0  0  0  0  0  0  0  0  0
    6.6515   -1.4875    0.0000 C   0  0  0  0  0  0  0  0  0  0  0  0
    5.2224    0.1625    0.0000 C   0  0  0  0  0  0  0  0  0  0  0  0
    5.9370   -1.0750    0.0000 C   0  0  0  0  0  0  0  0  0  0  0  0
    4.5080   -0.2500    0.0000 C   0  0  0  0  0  0  0  0  0  0  0  0
    3.0790    0.5750    0.0000 C   0  0  0  0  0  0  0  0  0  0  0  0
    2.3645    0.1625    0.0000 C   0  0  0  0  0  0  0  0  0  0  0  0
    3.0790    1.4001    0.0000 C   0  0  0  0  0  0  0  0  0  0  0  0
    1.6500    0.5750    0.0000 C   0  0  0  0  0  0  0  0  0  0  0  0
    2.3645    1.8126    0.0000 C   0  0  0  0  0  0  0  0  0  0  0  0
    1.6500    1.4001    0.0000 C   0  0  0  0  0  0  0  0  0  0  0  0
  1  2  2  0  0  0  0
  1  3  2  0  0  0  0
  1 21  1  0  0  0  0
  1 22  1  0  0  0  0
  4  6  1  0  0  0  0
  4  9  1  0  0  0  0
  4 12  1  0  0  0  0
  5 14  1  0  0  0  0
  5 15  1  0  0  0  0
  6  7  1  0  0  0  0
  6 10  1  1  0  0  0
  7  8  1  0  0  0  0
  8  9  1  0  0  0  0
 10 11  1  0  0  0  0
 11 13  1  0  0  0  0
 11 14  2  0  0  0  0
 13 15  2  0  0  0  0
 13 16  1  0  0  0  0
 15 18  1  0  0  0  0
 16 17  2  0  0  0  0
 17 19  1  0  0  0  0
 17 20  1  0  0  0  0
 18 20  2  0  0  0  0
 19 21  1  0  0  0  0
 22 23  2  0  0  0  0
 22 24  1  0  0  0  0
 23 25  1  0  0  0  0
 24 26  2  0  0  0  0
 25 27  2  0  0  0  0
 26 27  1  0  0  0  0
M  END
>  <DRUGBANK_ID>
DB00216

>  <DRUG_GROUPS>
approved; investigational

>  <GENERIC_NAME>
Eletriptan

>  <BRANDS>
Relpax

>  <CHEMICAL_FORMULA>
C22H26N2O2S

>  <MOLECULAR_WEIGHT>
382.519

>  <EXACT_MASS>
382.171498776

>  <IUPAC_NAME>
5-[2-(benzenesulfonyl)ethyl]-3-{[(2R)-1-methylpyrrolidin-2-yl]methyl}-1H-indole

>  <INCHI_IDENTIFIER>
InChI=1S/C22H26N2O2S/c1-24-12-5-6-19(24)15-18-16-23-22-10-9-17(14-21(18)22)11-13-27(25,26)20-7-3-2-4-8-20/h2-4,7-10,14,16,19,23H,5-6,11-13,15H2,1H3/t19-/m1/s1

>  <INCHI_KEY>
InChIKey=PWVXXGRKLHYWKM-LJQANCHMSA-N

>  <SMILES>
CN1CCC[C@@H]1CC1=CNC2=C1C=C(CCS(=O)(=O)C1=CC=CC=C1)C=C2

>  <JCHEM_ACCEPTOR_COUNT>
3

>  <JCHEM_DONOR_COUNT>
1

>  <JCHEM_ACIDIC_PKA>
17.11

>  <JCHEM_BASIC_PKA>
8.37

>  <JCHEM_PHYSIOLOGICAL_CHARGE>
1

>  <ALOGPS_LOGP>
3.84

>  <JCHEM_LOGP>
3.77

>  <ALOGPS_LOGS>
-5.5

>  <JCHEM_POLARIZABILITY>
42.99

>  <JCHEM_POLAR_SURFACE_AREA>
53.17

>  <JCHEM_REFRACTIVITY>
110.94

>  <JCHEM_ROTATABLE_BOND_COUNT>
6

>  <ALOGPS_SOLUBILITY>
1.18e-03 g/l

$$$$
2368
  Mrv0541 02231214312D          

 13 13  0  0  0  0            999 V2000
    3.0790    0.4125    0.0000 N   0  0  0  0  0  0  0  0  0  0  0  0
    3.7934    1.6500    0.0000 N   0  0  0  0  0  0  0  0  0  0  0  0
    2.3645    1.6500    0.0000 N   0  0  0  0  0  0  0  0  0  0  0  0
    2.3645    0.0000    0.0000 C   0  0  0  0  0  0  0  0  0  0  0  0
    2.3645   -0.8250    0.0000 C   0  0  0  0  0  0  0  0  0  0  0  0
    3.0790   -1.2375    0.0000 C   0  0  0  0  0  0  0  0  0  0  0  0
    1.6500   -1.2375    0.0000 C   0  0  0  0  0  0  0  0  0  0  0  0
    3.0790    1.2375    0.0000 C   0  0  0  0  0  0  0  0  0  0  0  0
    3.0790   -2.0625    0.0000 C   0  0  0  0  0  0  0  0  0  0  0  0
    1.6500   -2.0625    0.0000 C   0  0  0  0  0  0  0  0  0  0  0  0
    2.3645   -2.4750    0.0000 C   0  0  0  0  0  0  0  0  0  0  0  0
    3.7934    2.4750    0.0000 C   0  0  0  0  0  0  0  0  0  0  0  0
    2.3645    2.4750    0.0000 C   0  0  0  0  0  0  0  0  0  0  0  0
  1  4  1  0  0  0  0
  1  8  1  0  0  0  0
  2  8  1  0  0  0  0
  2 12  1  0  0  0  0
  3  8  2  0  0  0  0
  3 13  1  0  0  0  0
  4  5  1  0  0  0  0
  5  6  2  0  0  0  0
  5  7  1  0  0  0  0
  6  9  1  0  0  0  0
  7 10  2  0  0  0  0
  9 11  2  0  0  0  0
 10 11  1  0  0  0  0
M  END
>  <DRUGBANK_ID>
DB00217

>  <DRUG_GROUPS>
approved

>  <GENERIC_NAME>
Bethanidine

>  <SYNONYMS>
Betanidine; Bethanidine sulfate

>  <BRANDS>
Esbatal; Tenathan

>  <CHEMICAL_FORMULA>
C10H15N3

>  <MOLECULAR_WEIGHT>
177.2462

>  <EXACT_MASS>
177.126597495

>  <IUPAC_NAME>
(E)-3-benzyl-1,2-dimethylguanidine

>  <INCHI_IDENTIFIER>
InChI=1S/C10H15N3/c1-11-10(12-2)13-8-9-6-4-3-5-7-9/h3-7H,8H2,1-2H3,(H2,11,12,13)

>  <INCHI_KEY>
InChIKey=NIVZHWNOUVJHKV-UHFFFAOYSA-N

>  <SMILES>
CN\C(NCC1=CC=CC=C1)=N/C

>  <JCHEM_ACCEPTOR_COUNT>
3

>  <JCHEM_DONOR_COUNT>
2

>  <JCHEM_BASIC_PKA>
12.41

>  <JCHEM_PHYSIOLOGICAL_CHARGE>
1

>  <ALOGPS_LOGP>
1.41

>  <JCHEM_LOGP>
1.27

>  <ALOGPS_LOGS>
-2

>  <JCHEM_POLARIZABILITY>
20.43

>  <JCHEM_POLAR_SURFACE_AREA>
36.42

>  <JCHEM_REFRACTIVITY>
54.5

>  <JCHEM_ROTATABLE_BOND_COUNT>
2

>  <ALOGPS_SOLUBILITY>
1.58e+00 g/l

$$$$
218
  Mrv0541 02231214312D          

 31 35  0  0  1  0            999 V2000
    4.1869    1.4711    0.0000 F   0  0  0  0  0  0  0  0  0  0  0  0
    5.6158   -1.0040    0.0000 O   0  0  0  0  0  0  0  0  0  0  0  0
    7.0583    2.3247    0.0000 O   0  0  0  0  0  0  0  0  0  0  0  0
    9.2443    1.0813    0.0000 O   0  0  0  0  0  0  0  0  0  0  0  0
    8.5251    2.3161    0.0000 O   0  0  0  0  0  0  0  0  0  0  0  0
    4.1869   -0.1789    0.0000 N   0  0  0  0  0  0  0  0  0  0  0  0
    2.8876   -1.8817    0.0000 N   0  0  0  0  0  0  0  0  0  0  0  0
    7.0678   -0.2075    0.0000 N   0  0  0  0  0  0  0  0  0  0  0  0
    2.8876   -0.4528    0.0000 C   0  0  2  0  0  0  0  0  0  0  0  0
    3.3001   -1.1672    0.0000 C   0  0  1  0  0  0  0  0  0  0  0  0
    3.4379    0.1554    0.0000 C   0  0  0  0  0  0  0  0  0  0  0  0
    4.1018   -0.9946    0.0000 C   0  0  0  0  0  0  0  0  0  0  0  0
    2.0625   -0.4528    0.0000 C   0  0  0  0  0  0  0  0  0  0  0  0
    7.0583   -1.0324    0.0000 C   0  0  0  0  0  0  0  0  0  0  0  0
    1.6500   -1.1672    0.0000 C   0  0  0  0  0  0  0  0  0  0  0  0
    6.6375   -1.7421    0.0000 C   0  0  0  0  0  0  0  0  0  0  0  0
    7.4625   -1.7517    0.0000 C   0  0  0  0  0  0  0  0  0  0  0  0
    2.0625   -1.8817    0.0000 C   0  0  0  0  0  0  0  0  0  0  0  0
    4.9014    0.2336    0.0000 C   0  0  0  0  0  0  0  0  0  0  0  0
    6.3303    0.2336    0.0000 C   0  0  0  0  0  0  0  0  0  0  0  0
    5.6158   -0.1789    0.0000 C   0  0  0  0  0  0  0  0  0  0  0  0
    6.3303    1.0586    0.0000 C   0  0  0  0  0  0  0  0  0  0  0  0
    4.9014    1.0586    0.0000 C   0  0  0  0  0  0  0  0  0  0  0  0
    7.8154    0.2164    0.0000 C   0  0  0  0  0  0  0  0  0  0  0  0
    5.6158    1.4711    0.0000 C   0  0  0  0  0  0  0  0  0  0  0  0
    7.8154    1.0758    0.0000 C   0  0  0  0  0  0  0  0  0  0  0  0
    7.0678    1.4997    0.0000 C   0  0  0  0  0  0  0  0  0  0  0  0
    8.5282    1.4911    0.0000 C   0  0  0  0  0  0  0  0  0  0  0  0
    4.9014   -1.4165    0.0000 C   0  0  0  0  0  0  0  0  0  0  0  0
    2.6199    0.1506    0.0000 H   0  0  0  0  0  0  0  0  0  0  0  0
    3.6887   -1.7007    0.0000 H   0  0  0  0  0  0  0  0  0  0  0  0
  1 23  1  0  0  0  0
  2 21  1  0  0  0  0
  2 29  1  0  0  0  0
  3 27  2  0  0  0  0
  4 28  1  0  0  0  0
  5 28  2  0  0  0  0
  6 11  1  0  0  0  0
  6 12  1  0  0  0  0
  6 19  1  0  0  0  0
  7 10  1  0  0  0  0
  7 18  1  0  0  0  0
  8 14  1  0  0  0  0
  8 20  1  0  0  0  0
  8 24  1  0  0  0  0
  9 10  1  0  0  0  0
  9 11  1  0  0  0  0
  9 13  1  0  0  0  0
  9 30  1  6  0  0  0
 10 12  1  0  0  0  0
 10 31  1  6  0  0  0
 13 15  1  0  0  0  0
 14 16  1  0  0  0  0
 14 17  1  0  0  0  0
 15 18  1  0  0  0  0
 16 17  1  0  0  0  0
 19 21  1  0  0  0  0
 19 23  2  0  0  0  0
 20 21  2  0  0  0  0
 20 22  1  0  0  0  0
 22 25  2  0  0  0  0
 22 27  1  0  0  0  0
 23 25  1  0  0  0  0
 24 26  2  0  0  0  0
 26 27  1  0  0  0  0
 26 28  1  0  0  0  0
M  END
>  <DRUGBANK_ID>
DB00218

>  <DRUG_GROUPS>
approved; investigational

>  <GENERIC_NAME>
Moxifloxacin

>  <SYNONYMS>
BAY 12-8039; Moxifloxacin HCl; Moxifloxacin hydrochloride

>  <BRANDS>
Avelox; Avelox I.V.; Vigamox

>  <CHEMICAL_FORMULA>
C21H24FN3O4

>  <MOLECULAR_WEIGHT>
401.4314

>  <EXACT_MASS>
401.175084476

>  <IUPAC_NAME>
7-[(4aS,7aS)-octahydro-1H-pyrrolo[3,4-b]pyridin-6-yl]-1-cyclopropyl-6-fluoro-8-methoxy-4-oxo-1,4-dihydroquinoline-3-carboxylic acid

>  <INCHI_IDENTIFIER>
InChI=1S/C21H24FN3O4/c1-29-20-17-13(19(26)14(21(27)28)9-25(17)12-4-5-12)7-15(22)18(20)24-8-11-3-2-6-23-16(11)10-24/h7,9,11-12,16,23H,2-6,8,10H2,1H3,(H,27,28)/t11-,16+/m0/s1

>  <INCHI_KEY>
InChIKey=FABPRXSRWADJSP-MEDUHNTESA-N

>  <SMILES>
[H][C@]12CN(C[C@@]1([H])NCCC2)C1=C(F)C=C2C(=O)C(=CN(C3CC3)C2=C1OC)C(O)=O

>  <JCHEM_ACCEPTOR_COUNT>
7

>  <JCHEM_DONOR_COUNT>
2

>  <JCHEM_ACIDIC_PKA>
5.69

>  <JCHEM_BASIC_PKA>
9.42

>  <JCHEM_PHYSIOLOGICAL_CHARGE>
0

>  <ALOGPS_LOGP>
0.01

>  <JCHEM_LOGP>
-0.5

>  <ALOGPS_LOGS>
-3.4

>  <JCHEM_POLARIZABILITY>
41.24

>  <JCHEM_POLAR_SURFACE_AREA>
82.11

>  <JCHEM_REFRACTIVITY>
106.22

>  <JCHEM_ROTATABLE_BOND_COUNT>
4

>  <ALOGPS_SOLUBILITY>
1.68e-01 g/l

$$$$
