116
  Mrv0541 02231214272D          

 32 34  0  0  1  0            999 V2000
    3.5220   -0.2143    0.0000 O   0  0  0  0  0  0  0  0  0  0  0  0
    9.9988    1.0569    0.0000 O   0  0  0  0  0  0  0  0  0  0  0  0
   12.8598    0.2429    0.0000 O   0  0  0  0  0  0  0  0  0  0  0  0
   12.1501   -0.9974    0.0000 O   0  0  0  0  0  0  0  0  0  0  0  0
   12.8502    2.7179    0.0000 O   0  0  0  0  0  0  0  0  0  0  0  0
   11.4213    2.7124    0.0000 O   0  0  0  0  0  0  0  0  0  0  0  0
    4.9740   -1.0107    0.0000 N   0  0  0  0  0  0  0  0  0  0  0  0
    4.9740   -2.7179    0.0000 N   0  0  0  0  0  0  0  0  0  0  0  0
    7.1504   -1.4292    0.0000 N   0  0  0  0  0  0  0  0  0  0  0  0
    3.5220   -2.6894    0.0000 N   0  0  0  0  0  0  0  0  0  0  0  0
    2.8075   -1.4518    0.0000 N   0  0  0  0  0  0  0  0  0  0  0  0
   10.7180   -0.1779    0.0000 N   0  0  0  0  0  0  0  0  0  0  0  0
    2.0930   -2.6894    0.0000 N   0  0  0  0  0  0  0  0  0  0  0  0
    5.7214   -1.4347    0.0000 C   0  0  0  0  0  0  0  0  0  0  0  0
    5.7214   -2.2940    0.0000 C   0  0  0  0  0  0  0  0  0  0  0  0
    6.4343   -1.0194    0.0000 C   0  0  0  0  0  0  0  0  0  0  0  0
    4.2364   -1.4518    0.0000 C   0  0  0  0  0  0  0  0  0  0  0  0
    4.2364   -2.2769    0.0000 C   0  0  0  0  0  0  0  0  0  0  0  0
    7.8633   -1.0139    0.0000 C   0  0  0  0  0  0  0  0  0  0  0  0
    3.5220   -1.0393    0.0000 C   0  0  0  0  0  0  0  0  0  0  0  0
    2.8075   -2.2769    0.0000 C   0  0  0  0  0  0  0  0  0  0  0  0
   11.4309    0.2374    0.0000 C   0  0  1  0  0  0  0  0  0  0  0  0
   11.4277    1.0624    0.0000 C   0  0  0  0  0  0  0  0  0  0  0  0
    8.5793   -1.4236    0.0000 C   0  0  0  0  0  0  0  0  0  0  0  0
    7.8601   -0.1888    0.0000 C   0  0  0  0  0  0  0  0  0  0  0  0
    9.2890   -0.1834    0.0000 C   0  0  0  0  0  0  0  0  0  0  0  0
    9.2922   -1.0084    0.0000 C   0  0  0  0  0  0  0  0  0  0  0  0
    8.5730    0.2264    0.0000 C   0  0  0  0  0  0  0  0  0  0  0  0
   12.1406    1.4777    0.0000 C   0  0  0  0  0  0  0  0  0  0  0  0
   10.0019    0.2319    0.0000 C   0  0  0  0  0  0  0  0  0  0  0  0
   12.1469   -0.1723    0.0000 C   0  0  0  0  0  0  0  0  0  0  0  0
   12.1374    2.3027    0.0000 C   0  0  0  0  0  0  0  0  0  0  0  0
  1 20  2  0  0  0  0
  2 30  2  0  0  0  0
  3 31  1  0  0  0  0
  4 31  2  0  0  0  0
  5 32  1  0  0  0  0
  6 32  2  0  0  0  0
  7 14  1  0  0  0  0
  7 17  1  0  0  0  0
  8 15  1  0  0  0  0
  8 18  1  0  0  0  0
  9 16  1  0  0  0  0
  9 19  1  0  0  0  0
 10 18  1  0  0  0  0
 10 21  1  0  0  0  0
 11 20  1  0  0  0  0
 11 21  2  0  0  0  0
 22 12  1  1  0  0  0
 12 30  1  0  0  0  0
 13 21  1  0  0  0  0
 14 15  1  0  0  0  0
 14 16  1  0  0  0  0
 17 18  2  0  0  0  0
 17 20  1  0  0  0  0
 19 24  2  0  0  0  0
 19 25  1  0  0  0  0
 22 23  1  0  0  0  0
 22 31  1  0  0  0  0
 23 29  1  0  0  0  0
 24 27  1  0  0  0  0
 25 28  2  0  0  0  0
 26 27  2  0  0  0  0
 26 28  1  0  0  0  0
 26 30  1  0  0  0  0
 29 32  1  0  0  0  0
M  END
>  <DRUGBANK_ID>
DB00116

>  <DRUG_GROUPS>
approved; nutraceutical

>  <GENERIC_NAME>
Tetrahydrofolic acid

>  <SYNONYMS>
5,6,7,8-tetrahydrofolate; 5,6,7,8-tetrahydrofolic acid; tetrahydrofolate

>  <CHEMICAL_FORMULA>
C19H23N7O6

>  <MOLECULAR_WEIGHT>
445.4292

>  <EXACT_MASS>
445.170981503

>  <IUPAC_NAME>
(2S)-2-[(4-{[(2-amino-4-oxo-1,4,5,6,7,8-hexahydropteridin-6-yl)methyl]amino}phenyl)formamido]pentanedioic acid

>  <INCHI_IDENTIFIER>
InChI=1S/C19H23N7O6/c20-19-25-15-14(17(30)26-19)23-11(8-22-15)7-21-10-3-1-9(2-4-10)16(29)24-12(18(31)32)5-6-13(27)28/h1-4,11-12,21,23H,5-8H2,(H,24,29)(H,27,28)(H,31,32)(H4,20,22,25,26,30)/t11?,12-/m0/s1

>  <INCHI_KEY>
InChIKey=MSTNYGQPCMXVAQ-KIYNQFGBSA-N

>  <SMILES>
NC1=NC(=O)C2=C(NCC(CNC3=CC=C(C=C3)C(=O)N[C@@H](CCC(O)=O)C(O)=O)N2)N1

>  <JCHEM_ACCEPTOR_COUNT>
12

>  <JCHEM_DONOR_COUNT>
8

>  <JCHEM_ACIDIC_PKA>
3.51

>  <JCHEM_BASIC_PKA>
3.58

>  <JCHEM_PHYSIOLOGICAL_CHARGE>
-2

>  <ALOGPS_LOGP>
-0.96

>  <JCHEM_LOGP>
-4.2

>  <ALOGPS_LOGS>
-3.2

>  <JCHEM_POLARIZABILITY>
42.95

>  <JCHEM_POLAR_SURFACE_AREA>
207.27

>  <JCHEM_REFRACTIVITY>
121.39

>  <JCHEM_ROTATABLE_BOND_COUNT>
9

>  <ALOGPS_SOLUBILITY>
2.69e-01 g/l

$$$$
117
  Mrv0541 02231214272D          

 11 11  0  0  1  0            999 V2000
    5.7803    0.3693    0.0000 O   0  0  0  0  0  0  0  0  0  0  0  0
    5.3388   -0.9898    0.0000 O   0  0  0  0  0  0  0  0  0  0  0  0
    2.3174   -0.7099    0.0000 N   0  0  0  0  0  0  0  0  0  0  0  0
    4.2111    0.8791    0.0000 N   0  0  0  0  0  0  0  0  0  0  0  0
    1.9049    0.5597    0.0000 N   0  0  0  0  0  0  0  0  0  0  0  0
    3.7695   -0.4799    0.0000 C   0  0  0  0  0  0  0  0  0  0  0  0
    4.3826    0.0721    0.0000 C   0  0  1  0  0  0  0  0  0  0  0  0
    2.9849   -0.2250    0.0000 C   0  0  0  0  0  0  0  0  0  0  0  0
    5.1672   -0.1828    0.0000 C   0  0  0  0  0  0  0  0  0  0  0  0
    2.7299    0.5597    0.0000 C   0  0  0  0  0  0  0  0  0  0  0  0
    1.6500   -0.2250    0.0000 C   0  0  0  0  0  0  0  0  0  0  0  0
  1  9  1  0  0  0  0
  2  9  2  0  0  0  0
  3  8  1  0  0  0  0
  3 11  1  0  0  0  0
  7  4  1  6  0  0  0
  5 10  1  0  0  0  0
  5 11  2  0  0  0  0
  6  7  1  0  0  0  0
  6  8  1  0  0  0  0
  7  9  1  0  0  0  0
  8 10  2  0  0  0  0
M  END
>  <DRUGBANK_ID>
DB00117

>  <DRUG_GROUPS>
approved; nutraceutical

>  <GENERIC_NAME>
L-Histidine

>  <SYNONYMS>
(S)-4-(2-Amino-2-carboxyethyl)imidazole; (S)-a-Amino-1H-imidazole-4-propanoic acid; (S)-alpha-Amino-1H-imidazole-4-propionic acid; (S)-Histidine; Glyoxaline-5-alanine; Histidine; L-(-)-Histidine

>  <CHEMICAL_FORMULA>
C6H9N3O2

>  <MOLECULAR_WEIGHT>
155.1546

>  <EXACT_MASS>
155.069476547

>  <IUPAC_NAME>
(2S)-2-amino-3-(1H-imidazol-5-yl)propanoic acid

>  <INCHI_IDENTIFIER>
InChI=1S/C6H9N3O2/c7-5(6(10)11)1-4-2-8-3-9-4/h2-3,5H,1,7H2,(H,8,9)(H,10,11)/t5-/m0/s1

>  <INCHI_KEY>
InChIKey=HNDVDQJCIGZPNO-YFKPBYRVSA-N

>  <SMILES>
N[C@@H](CC1=CN=CN1)C(O)=O

>  <JCHEM_ACCEPTOR_COUNT>
4

>  <JCHEM_DONOR_COUNT>
3

>  <JCHEM_ACIDIC_PKA>
1.85

>  <JCHEM_BASIC_PKA>
9.44

>  <JCHEM_PHYSIOLOGICAL_CHARGE>
0

>  <ALOGPS_LOGP>
-3.1

>  <JCHEM_LOGP>
-3.6

>  <ALOGPS_LOGS>
-0.4

>  <JCHEM_POLARIZABILITY>
14.67

>  <JCHEM_POLAR_SURFACE_AREA>
92

>  <JCHEM_REFRACTIVITY>
38.06

>  <JCHEM_ROTATABLE_BOND_COUNT>
3

>  <ALOGPS_SOLUBILITY>
6.20e+01 g/l

$$$$
118
  Mrv0541 02231214272D          

 27 29  0  0  1  0            999 V2000
    6.3238    1.4141    0.0000 S   0  3  0  0  0  0  0  0  0  0  0  0
    4.9010    0.4421    0.0000 O   0  0  0  0  0  0  0  0  0  0  0  0
    3.8647    2.3086    0.0000 O   0  0  0  0  0  0  0  0  0  0  0  0
    2.8071    0.8583    0.0000 O   0  0  0  0  0  0  0  0  0  0  0  0
    9.8349    2.1917    0.0000 O   0  0  0  0  0  0  0  0  0  0  0  0
    9.2515    0.8872    0.0000 O   0  0  0  0  0  0  0  0  0  0  0  0
    3.8597   -0.5957    0.0000 N   0  0  0  0  0  0  0  0  0  0  0  0
    3.8597   -1.9234    0.0000 N   0  0  0  0  0  0  0  0  0  0  0  0
    2.3645   -0.4345    0.0000 N   0  0  0  0  0  0  0  0  0  0  0  0
    8.3287    2.8654    0.0000 N   0  0  0  0  0  0  0  0  0  0  0  0
    1.6500   -1.6721    0.0000 N   0  0  0  0  0  0  0  0  0  0  0  0
    2.3645   -2.9096    0.0000 N   0  0  0  0  0  0  0  0  0  0  0  0
    4.9025    1.2671    0.0000 C   0  0  1  0  0  0  0  0  0  0  0  0
    4.1182    1.5235    0.0000 C   0  0  2  0  0  0  0  0  0  0  0  0
    3.6321    0.8569    0.0000 C   0  0  2  0  0  0  0  0  0  0  0  0
    4.1159    0.1886    0.0000 C   0  0  1  0  0  0  0  0  0  0  0  0
    5.5707    1.7509    0.0000 C   0  0  0  0  0  0  0  0  0  0  0  0
    6.9922    1.8979    0.0000 C   0  0  0  0  0  0  0  0  0  0  0  0
    3.0790   -0.8470    0.0000 C   0  0  0  0  0  0  0  0  0  0  0  0
    4.3411   -1.2595    0.0000 C   0  0  0  0  0  0  0  0  0  0  0  0
    7.7452    1.5610    0.0000 C   0  0  0  0  0  0  0  0  0  0  0  0
    6.4086    0.5934    0.0000 C   0  0  0  0  0  0  0  0  0  0  0  0
    3.0790   -1.6721    0.0000 C   0  0  0  0  0  0  0  0  0  0  0  0
    8.4135    2.0447    0.0000 C   0  0  1  0  0  0  0  0  0  0  0  0
    2.3645   -2.0846    0.0000 C   0  0  0  0  0  0  0  0  0  0  0  0
    9.1667    1.7079    0.0000 C   0  0  0  0  0  0  0  0  0  0  0  0
    1.6500   -0.8470    0.0000 C   0  0  0  0  0  0  0  0  0  0  0  0
  1 17  1  0  0  0  0
  1 18  1  0  0  0  0
  1 22  1  0  0  0  0
  2 13  1  0  0  0  0
  2 16  1  0  0  0  0
 14  3  1  6  0  0  0
 15  4  1  6  0  0  0
  5 26  1  0  0  0  0
  6 26  2  0  0  0  0
 16  7  1  1  0  0  0
  7 19  1  0  0  0  0
  7 20  1  0  0  0  0
  8 20  2  0  0  0  0
  8 23  1  0  0  0  0
  9 19  2  0  0  0  0
  9 27  1  0  0  0  0
 24 10  1  6  0  0  0
 11 25  1  0  0  0  0
 11 27  2  0  0  0  0
 12 25  1  0  0  0  0
 13 14  1  0  0  0  0
 13 17  1  1  0  0  0
 14 15  1  0  0  0  0
 15 16  1  0  0  0  0
 18 21  1  0  0  0  0
 19 23  1  0  0  0  0
 21 24  1  0  0  0  0
 23 25  2  0  0  0  0
 24 26  1  0  0  0  0
M  CHG  1   1   1
M  END
>  <DRUGBANK_ID>
DB00118

>  <DRUG_GROUPS>
approved; nutraceutical

>  <GENERIC_NAME>
S-Adenosylmethionine

>  <SYNONYMS>
Acylcarnitine; AdoMet; S-adenosyl-L-methionine; SAM; SAM-e; SAMe

>  <BRANDS>
Sam-Sulfate; SAMe Rx-Mood

>  <CHEMICAL_FORMULA>
C15H23N6O5S

>  <MOLECULAR_WEIGHT>
399.445

>  <EXACT_MASS>
399.145063566

>  <IUPAC_NAME>
[(3S)-3-amino-3-carboxypropyl]({[(2S,3S,4R,5R)-5-(6-amino-9H-purin-9-yl)-3,4-dihydroxyoxolan-2-yl]methyl})methylsulfanium

>  <INCHI_IDENTIFIER>
InChI=1S/C15H22N6O5S/c1-27(3-2-7(16)15(24)25)4-8-10(22)11(23)14(26-8)21-6-20-9-12(17)18-5-19-13(9)21/h5-8,10-11,14,22-23H,2-4,16H2,1H3,(H2-,17,18,19,24,25)/p+1/t7-,8+,10+,11+,14+,27?/m0/s1

>  <INCHI_KEY>
InChIKey=MEFKEPWMEQBLKI-AIRLBKTGSA-O

>  <SMILES>
C[S+](CC[C@H](N)C(O)=O)C[C@H]1O[C@H]([C@H](O)[C@@H]1O)N1C=NC2=C(N)N=CN=C12

>  <JCHEM_ACCEPTOR_COUNT>
10

>  <JCHEM_DONOR_COUNT>
5

>  <JCHEM_ACIDIC_PKA>
1.71

>  <JCHEM_BASIC_PKA>
9.41

>  <JCHEM_PHYSIOLOGICAL_CHARGE>
1

>  <ALOGPS_LOGP>
-2

>  <JCHEM_LOGP>
-5.3

>  <ALOGPS_LOGS>
-2.6

>  <JCHEM_POLARIZABILITY>
40.37

>  <JCHEM_POLAR_SURFACE_AREA>
182.63

>  <JCHEM_REFRACTIVITY>
96.23

>  <JCHEM_ROTATABLE_BOND_COUNT>
7

>  <ALOGPS_SOLUBILITY>
1.19e+00 g/l

$$$$

  Mrv0541 02231214272D          

  6  5  0  0  0  0            999 V2000
    2.0928    0.2063    0.0000 O   0  0  0  0  0  0  0  0  0  0  0  0
    3.5217    1.0312    0.0000 O   0  0  0  0  0  0  0  0  0  0  0  0
    2.8072   -1.0312    0.0000 O   0  0  0  0  0  0  0  0  0  0  0  0
    3.5217    0.2063    0.0000 C   0  0  0  0  0  0  0  0  0  0  0  0
    4.2361   -0.2063    0.0000 C   0  0  0  0  0  0  0  0  0  0  0  0
    2.8072   -0.2063    0.0000 C   0  0  0  0  0  0  0  0  0  0  0  0
  1  6  1  0  0  0  0
  2  4  2  0  0  0  0
  3  6  2  0  0  0  0
  4  5  1  0  0  0  0
  4  6  1  0  0  0  0
M  END
>  <DRUGBANK_ID>
DB00119

>  <DRUG_GROUPS>
approved; nutraceutical

>  <GENERIC_NAME>
Pyruvic acid

>  <SYNONYMS>
2-Oxopropanoate; 2-Oxopropanoic acid; 2-Oxopropionic acid; a-Ketopropionic acid; Acetylformic acid; BTS; Pyroracemic acid; Pyruvate

>  <CHEMICAL_FORMULA>
C3H4O3

>  <MOLECULAR_WEIGHT>
88.0621

>  <EXACT_MASS>
88.016043994

>  <IUPAC_NAME>
2-oxopropanoic acid

>  <INCHI_IDENTIFIER>
InChI=1S/C3H4O3/c1-2(4)3(5)6/h1H3,(H,5,6)

>  <INCHI_KEY>
InChIKey=LCTONWCANYUPML-UHFFFAOYSA-N

>  <SMILES>
CC(=O)C(O)=O

>  <JCHEM_ACCEPTOR_COUNT>
3

>  <JCHEM_DONOR_COUNT>
1

>  <JCHEM_ACIDIC_PKA>
2.93

>  <JCHEM_BASIC_PKA>
-9.6

>  <JCHEM_PHYSIOLOGICAL_CHARGE>
-1

>  <ALOGPS_LOGP>
-0.38

>  <JCHEM_LOGP>
0.066

>  <ALOGPS_LOGS>
0.18

>  <JCHEM_POLARIZABILITY>
7.31

>  <JCHEM_POLAR_SURFACE_AREA>
54.37

>  <JCHEM_REFRACTIVITY>
17.99

>  <JCHEM_ROTATABLE_BOND_COUNT>
1

>  <ALOGPS_SOLUBILITY>
1.34e+02 g/l

$$$$
120
  Mrv0541 02231214272D          

 12 12  0  0  1  0            999 V2000
    3.7934    1.8067    0.0000 O   0  0  0  0  0  0  0  0  0  0  0  0
    2.3644    1.8067    0.0000 O   0  0  0  0  0  0  0  0  0  0  0  0
    3.7934    0.1568    0.0000 N   0  0  0  0  0  0  0  0  0  0  0  0
    2.3644    0.1568    0.0000 C   0  0  0  0  0  0  0  0  0  0  0  0
    3.0790    0.5692    0.0000 C   0  0  1  0  0  0  0  0  0  0  0  0
    2.3644   -0.6683    0.0000 C   0  0  0  0  0  0  0  0  0  0  0  0
    3.0790   -1.0808    0.0000 C   0  0  0  0  0  0  0  0  0  0  0  0
    1.6500   -1.0808    0.0000 C   0  0  0  0  0  0  0  0  0  0  0  0
    3.0790    1.3942    0.0000 C   0  0  0  0  0  0  0  0  0  0  0  0
    3.0790   -1.9058    0.0000 C   0  0  0  0  0  0  0  0  0  0  0  0
    1.6500   -1.9058    0.0000 C   0  0  0  0  0  0  0  0  0  0  0  0
    2.3644   -2.3182    0.0000 C   0  0  0  0  0  0  0  0  0  0  0  0
  1  9  1  0  0  0  0
  2  9  2  0  0  0  0
  5  3  1  1  0  0  0
  4  5  1  0  0  0  0
  4  6  1  0  0  0  0
  5  9  1  0  0  0  0
  6  7  2  0  0  0  0
  6  8  1  0  0  0  0
  7 10  1  0  0  0  0
  8 11  2  0  0  0  0
 10 12  2  0  0  0  0
 11 12  1  0  0  0  0
M  END
>  <DRUGBANK_ID>
DB00120

>  <DRUG_GROUPS>
approved; nutraceutical

>  <GENERIC_NAME>
L-Phenylalanine

>  <SYNONYMS>
(S)-alpha-Amino-beta-phenylpropionic acid; 3-phenyl-L-alanine; Phe; -phenyl-L-alanine

>  <CHEMICAL_FORMULA>
C9H11NO2

>  <MOLECULAR_WEIGHT>
165.1891

>  <EXACT_MASS>
165.078978601

>  <IUPAC_NAME>
(2S)-2-amino-3-phenylpropanoic acid

>  <INCHI_IDENTIFIER>
InChI=1S/C9H11NO2/c10-8(9(11)12)6-7-4-2-1-3-5-7/h1-5,8H,6,10H2,(H,11,12)/t8-/m0/s1

>  <INCHI_KEY>
InChIKey=COLNVLDHVKWLRT-QMMMGPOBSA-N

>  <SMILES>
N[C@@H](CC1=CC=CC=C1)C(O)=O

>  <JCHEM_ACCEPTOR_COUNT>
3

>  <JCHEM_DONOR_COUNT>
2

>  <JCHEM_ACIDIC_PKA>
2.47

>  <JCHEM_BASIC_PKA>
9.45

>  <JCHEM_PHYSIOLOGICAL_CHARGE>
0

>  <ALOGPS_LOGP>
-1.4

>  <JCHEM_LOGP>
-1.2

>  <ALOGPS_LOGS>
-1.6

>  <JCHEM_POLARIZABILITY>
17.03

>  <JCHEM_POLAR_SURFACE_AREA>
63.32

>  <JCHEM_REFRACTIVITY>
45.12

>  <JCHEM_ROTATABLE_BOND_COUNT>
3

>  <ALOGPS_SOLUBILITY>
4.14e+00 g/l

$$$$
121
  Mrv0541 02231214272D          

 18 19  0  0  1  0            999 V2000
    5.0072   -1.4297    0.0000 S   0  0  0  0  0  0  0  0  0  0  0  0
    1.6501   -1.4297    0.0000 O   0  0  0  0  0  0  0  0  0  0  0  0
    7.7167    2.0975    0.0000 O   0  0  0  0  0  0  0  0  0  0  0  0
    6.3583    2.5414    0.0000 O   0  0  0  0  0  0  0  0  0  0  0  0
    2.9603   -0.7622    0.0000 N   0  0  0  0  0  0  0  0  0  0  0  0
    2.9603   -2.0972    0.0000 N   0  0  0  0  0  0  0  0  0  0  0  0
    3.7448   -1.0172    0.0000 C   0  0  1  0  0  0  0  0  0  0  0  0
    3.7448   -1.8423    0.0000 C   0  0  2  0  0  0  0  0  0  0  0  0
    4.5257   -0.7658    0.0000 C   0  0  2  0  0  0  0  0  0  0  0  0
    4.5257   -2.0937    0.0000 C   0  0  0  0  0  0  0  0  0  0  0  0
    4.7819    0.0186    0.0000 C   0  0  0  0  0  0  0  0  0  0  0  0
    5.5893    0.1887    0.0000 C   0  0  0  0  0  0  0  0  0  0  0  0
    2.4752   -1.4297    0.0000 C   0  0  0  0  0  0  0  0  0  0  0  0
    5.8456    0.9729    0.0000 C   0  0  0  0  0  0  0  0  0  0  0  0
    6.6530    1.1431    0.0000 C   0  0  0  0  0  0  0  0  0  0  0  0
    6.9093    1.9273    0.0000 C   0  0  0  0  0  0  0  0  0  0  0  0
    3.7458   -0.3571    0.0000 H   0  0  0  0  0  0  0  0  0  0  0  0
    3.7458   -2.5023    0.0000 H   0  0  0  0  0  0  0  0  0  0  0  0
  1  9  1  0  0  0  0
  1 10  1  0  0  0  0
  2 13  2  0  0  0  0
  3 16  1  0  0  0  0
  4 16  2  0  0  0  0
  5  7  1  0  0  0  0
  5 13  1  0  0  0  0
  6  8  1  0  0  0  0
  6 13  1  0  0  0  0
  7  8  1  0  0  0  0
  7  9  1  0  0  0  0
  7 17  1  1  0  0  0
  8 10  1  0  0  0  0
  8 18  1  1  0  0  0
  9 11  1  6  0  0  0
 11 12  1  0  0  0  0
 12 14  1  0  0  0  0
 14 15  1  0  0  0  0
 15 16  1  0  0  0  0
M  END
>  <DRUGBANK_ID>
DB00121

>  <DRUG_GROUPS>
approved; nutraceutical

>  <GENERIC_NAME>
Biotin

>  <SYNONYMS>
(+)-cis-Hexahydro-2-oxo-1H-thieno[3,4]imidazole-4-valeric acid; cis-(+)-Tetrahydro-2-oxothieno[3,4]imidazoline-4-valeric acid; Coenzyme R; D-Biotin; D(+)-Biotin; Vitamin B7; Vitamin H

>  <BRANDS>
Biodermatin; Bioepiderm; Bios II; Biotin Forte; Factor S; Lutavit H2; Meribin; Rovimix H2

>  <CHEMICAL_FORMULA>
C10H16N2O3S

>  <MOLECULAR_WEIGHT>
244.311

>  <EXACT_MASS>
244.088163078

>  <IUPAC_NAME>
5-[(3aS,4S,6aR)-2-oxo-hexahydro-1H-thieno[3,4-d]imidazolidin-4-yl]pentanoic acid

>  <INCHI_IDENTIFIER>
InChI=1S/C10H16N2O3S/c13-8(14)4-2-1-3-7-9-6(5-16-7)11-10(15)12-9/h6-7,9H,1-5H2,(H,13,14)(H2,11,12,15)/t6-,7-,9-/m0/s1

>  <INCHI_KEY>
InChIKey=YBJHBAHKTGYVGT-ZKWXMUAHSA-N

>  <SMILES>
[H][C@]12CS[C@@H](CCCCC(O)=O)[C@@]1([H])NC(=O)N2

>  <JCHEM_ACCEPTOR_COUNT>
3

>  <JCHEM_DONOR_COUNT>
3

>  <JCHEM_ACIDIC_PKA>
4.4

>  <JCHEM_BASIC_PKA>
-1.9

>  <JCHEM_PHYSIOLOGICAL_CHARGE>
-1

>  <ALOGPS_LOGP>
0.17

>  <JCHEM_LOGP>
0.32

>  <ALOGPS_LOGS>
-2.3

>  <JCHEM_POLARIZABILITY>
24.92

>  <JCHEM_POLAR_SURFACE_AREA>
78.43

>  <JCHEM_REFRACTIVITY>
60.05

>  <JCHEM_ROTATABLE_BOND_COUNT>
5

>  <ALOGPS_SOLUBILITY>
1.22e+00 g/l

$$$$
122
  Mrv0541 02231214272D          

  7  6  0  0  0  0            999 V2000
    4.5080    0.4125    0.0000 O   0  0  0  0  0  0  0  0  0  0  0  0
    2.3645    0.0000    0.0000 N   0  3  0  0  0  0  0  0  0  0  0  0
    3.0791    0.4125    0.0000 C   0  0  0  0  0  0  0  0  0  0  0  0
    1.6501   -0.4125    0.0000 C   0  0  0  0  0  0  0  0  0  0  0  0
    1.9520    0.7145    0.0000 C   0  0  0  0  0  0  0  0  0  0  0  0
    2.7770   -0.7145    0.0000 C   0  0  0  0  0  0  0  0  0  0  0  0
    3.7936    0.0000    0.0000 C   0  0  0  0  0  0  0  0  0  0  0  0
  1  7  1  0  0  0  0
  2  3  1  0  0  0  0
  2  4  1  0  0  0  0
  2  5  1  0  0  0  0
  2  6  1  0  0  0  0
  3  7  1  0  0  0  0
M  CHG  1   2   1
M  END
>  <DRUGBANK_ID>
DB00122

>  <DRUG_GROUPS>
approved; nutraceutical

>  <GENERIC_NAME>
Choline

>  <SYNONYMS>
Bilineurine; Choline cation; Choline ion; Cholinum; N-trimethylethanolamine; N,N,N-trimethylethanol-ammonium; trimethylethanolamine

>  <CHEMICAL_FORMULA>
C5H14NO

>  <MOLECULAR_WEIGHT>
104.1708

>  <EXACT_MASS>
104.107539075

>  <IUPAC_NAME>
(2-hydroxyethyl)trimethylazanium

>  <INCHI_IDENTIFIER>
InChI=1S/C5H14NO/c1-6(2,3)4-5-7/h7H,4-5H2,1-3H3/q+1

>  <INCHI_KEY>
InChIKey=OEYIOHPDSNJKLS-UHFFFAOYSA-N

>  <SMILES>
C[N+](C)(C)CCO

>  <JCHEM_ACCEPTOR_COUNT>
1

>  <JCHEM_DONOR_COUNT>
1

>  <JCHEM_ACIDIC_PKA>
13.97

>  <JCHEM_BASIC_PKA>
-3.2

>  <JCHEM_PHYSIOLOGICAL_CHARGE>
1

>  <ALOGPS_LOGP>
-3.6

>  <JCHEM_LOGP>
-4.7

>  <ALOGPS_LOGS>
-1.6

>  <JCHEM_POLARIZABILITY>
12.57

>  <JCHEM_POLAR_SURFACE_AREA>
20.23

>  <JCHEM_REFRACTIVITY>
42.19

>  <JCHEM_ROTATABLE_BOND_COUNT>
2

>  <ALOGPS_SOLUBILITY>
3.61e+00 g/l

$$$$
123
  Mrv0541 02231214272D          

 10  9  0  0  1  0            999 V2000
    4.9509    1.1592    0.0000 O   0  0  0  0  0  0  0  0  0  0  0  0
    4.2365    2.3967    0.0000 O   0  0  0  0  0  0  0  0  0  0  0  0
    2.8075    1.5717    0.0000 N   0  0  0  0  0  0  0  0  0  0  0  0
    2.0930   -2.1409    0.0000 N   0  0  0  0  0  0  0  0  0  0  0  0
    2.8075   -0.0784    0.0000 C   0  0  0  0  0  0  0  0  0  0  0  0
    3.5220    0.3341    0.0000 C   0  0  0  0  0  0  0  0  0  0  0  0
    2.8075   -0.9034    0.0000 C   0  0  0  0  0  0  0  0  0  0  0  0
    3.5220    1.1592    0.0000 C   0  0  1  0  0  0  0  0  0  0  0  0
    2.0930   -1.3159    0.0000 C   0  0  0  0  0  0  0  0  0  0  0  0
    4.2365    1.5717    0.0000 C   0  0  0  0  0  0  0  0  0  0  0  0
  1 10  1  0  0  0  0
  2 10  2  0  0  0  0
  8  3  1  6  0  0  0
  4  9  1  0  0  0  0
  5  6  1  0  0  0  0
  5  7  1  0  0  0  0
  6  8  1  0  0  0  0
  7  9  1  0  0  0  0
  8 10  1  0  0  0  0
M  END
>  <DRUGBANK_ID>
DB00123

>  <DRUG_GROUPS>
approved; nutraceutical

>  <GENERIC_NAME>
L-Lysine

>  <SYNONYMS>
(S)-2,6-diaminohexanoic acid; (S)-lysine; (S)-,-diaminocaproic acid; L-lys; LYS; lysine acid

>  <BRANDS>
Enisyl

>  <CHEMICAL_FORMULA>
C6H14N2O2

>  <MOLECULAR_WEIGHT>
146.1876

>  <EXACT_MASS>
146.105527702

>  <IUPAC_NAME>
(2S)-2,6-diaminohexanoic acid

>  <INCHI_IDENTIFIER>
InChI=1S/C6H14N2O2/c7-4-2-1-3-5(8)6(9)10/h5H,1-4,7-8H2,(H,9,10)/t5-/m0/s1

>  <INCHI_KEY>
InChIKey=KDXKERNSBIXSRK-YFKPBYRVSA-N

>  <SMILES>
NCCCC[C@H](N)C(O)=O

>  <JCHEM_ACCEPTOR_COUNT>
4

>  <JCHEM_DONOR_COUNT>
3

>  <JCHEM_ACIDIC_PKA>
2.74

>  <JCHEM_BASIC_PKA>
10.29

>  <JCHEM_PHYSIOLOGICAL_CHARGE>
1

>  <ALOGPS_LOGP>
-3.8

>  <JCHEM_LOGP>
-3.2

>  <ALOGPS_LOGS>
-0.14

>  <JCHEM_POLARIZABILITY>
15.84

>  <JCHEM_POLAR_SURFACE_AREA>
89.34

>  <JCHEM_REFRACTIVITY>
37.81

>  <JCHEM_ROTATABLE_BOND_COUNT>
5

>  <ALOGPS_SOLUBILITY>
1.05e+02 g/l

$$$$
 
  Mrv0541 02231214272D          
 
 12 11  0  0  1  0            999 V2000
   14.1789  -10.6043    0.0000 C   0  0  0  0  0  0  0  0  0  0  0  0
   14.8861  -11.0267    0.0000 C   0  0  0  0  0  0  0  0  0  0  0  0
   13.4544  -11.0061    0.0000 C   0  0  1  0  0  0  0  0  0  0  0  0
   15.6071  -10.6250    0.0000 C   0  0  0  0  0  0  0  0  0  0  0  0
   12.7815  -10.5666    0.0000 C   0  0  0  0  0  0  0  0  0  0  0  0
   13.4818  -11.8301    0.0000 N   0  0  0  0  0  0  0  0  0  0  0  0
   16.3178  -11.0439    0.0000 N   0  0  0  0  0  0  0  0  0  0  0  0
   12.0605  -10.9683    0.0000 O   0  0  0  0  0  0  0  0  0  0  0  0
   12.7540   -9.7392    0.0000 O   0  0  0  0  0  0  0  0  0  0  0  0
   17.0389  -10.6455    0.0000 C   0  0  0  0  0  0  0  0  0  0  0  0
   17.7461  -11.0644    0.0000 N   0  0  0  0  0  0  0  0  0  0  0  0
   17.0492   -9.8182    0.0000 N   0  0  0  0  0  0  0  0  0  0  0  0
  1  2  1  0  0  0  0
  1  3  1  0  0  0  0
  2  4  1  0  0  0  0
  3  5  1  0  0  0  0
  3  6  1  6  0  0  0
  4  7  1  0  0  0  0
  5  8  1  0  0  0  0
  5  9  2  0  0  0  0
  7 10  1  0  0  0  0
 10 11  1  0  0  0  0
 10 12  2  0  0  0  0
M  END
>  <DRUGBANK_ID>
DB00125

>  <DRUG_GROUPS>
approved; nutraceutical

>  <GENERIC_NAME>
L-Arginine

>  <SYNONYMS>
(S)-2-Amino-5-guanidinovaleric acid; Arg; L-(+)-Arginine; L-Arg

>  <BRANDS>
Argamine; Argivene; Detoxargin; Levargin; Minophagen A; R-Gene 10

>  <CHEMICAL_FORMULA>
C6H14N4O2

>  <MOLECULAR_WEIGHT>
174.201

>  <EXACT_MASS>
174.111675712

>  <IUPAC_NAME>
(2S)-2-amino-5-carbamimidamidopentanoic acid

>  <INCHI_IDENTIFIER>
InChI=1S/C6H14N4O2/c7-4(5(11)12)2-1-3-10-6(8)9/h4H,1-3,7H2,(H,11,12)(H4,8,9,10)/t4-/m0/s1

>  <INCHI_KEY>
InChIKey=ODKSFYDXXFIFQN-BYPYZUCNSA-N

>  <SMILES>
N[C@@H](CCCNC(N)=N)C(O)=O

>  <JCHEM_ACCEPTOR_COUNT>
6

>  <JCHEM_DONOR_COUNT>
5

>  <JCHEM_ACIDIC_PKA>
2.41

>  <JCHEM_BASIC_PKA>
12.41

>  <JCHEM_PHYSIOLOGICAL_CHARGE>
1

>  <ALOGPS_LOGP>
-3.5

>  <JCHEM_LOGP>
-3.2

>  <ALOGPS_LOGS>
-1.9

>  <JCHEM_POLARIZABILITY>
17.94

>  <JCHEM_POLAR_SURFACE_AREA>
125.22

>  <JCHEM_REFRACTIVITY>
53.92

>  <JCHEM_ROTATABLE_BOND_COUNT>
5

>  <ALOGPS_SOLUBILITY>
2.28e+00 g/l

$$$$

  Mrv0541 02231214272D          

 13 13  0  0  1  0            999 V2000
    0.0000    0.0000    0.0000 O   0  0  0  0  0  0  0  0  0  0  0  0
   -0.8974   -1.9370    0.0000 O   0  0  0  0  0  0  0  0  0  0  0  0
    0.8974   -1.9370    0.0000 O   0  0  0  0  0  0  0  0  0  0  0  0
    0.6674   -0.4849    0.0000 C   0  0  0  0  0  0  0  0  0  0  0  0
    1.4521   -0.2300    0.0000 O   0  0  0  0  0  0  0  0  0  0  0  0
    0.4125   -1.2695    0.0000 C   0  0  0  0  0  0  0  0  0  0  0  0
   -0.4125   -1.2695    0.0000 C   0  0  0  0  0  0  0  0  0  0  0  0
   -2.8109   -0.0724    0.0000 O   0  0  0  0  0  0  0  0  0  0  0  0
   -2.0964   -0.4849    0.0000 C   0  0  0  0  0  0  0  0  0  0  0  0
   -1.3819   -0.0724    0.0000 C   0  0  2  0  0  0  0  0  0  0  0  0
   -1.3819    0.7526    0.0000 O   0  0  0  0  0  0  0  0  0  0  0  0
   -0.6674   -0.4849    0.0000 C   0  0  1  0  0  0  0  0  0  0  0  0
   -1.2508   -1.0683    0.0000 H   0  0  0  0  0  0  0  0  0  0  0  0
  1  4  1  0  0  0  0
 12  1  1  0  0  0  0
  7  2  1  0  0  0  0
  6  3  1  0  0  0  0
  4  5  2  0  0  0  0
  4  6  1  0  0  0  0
  6  7  2  0  0  0  0
 12  7  1  0  0  0  0
  8  9  1  0  0  0  0
  9 10  1  0  0  0  0
 12 10  1  0  0  0  0
 10 11  1  6  0  0  0
 12 13  1  6  0  0  0
M  END
>  <DRUGBANK_ID>
DB00126

>  <DRUG_GROUPS>
approved; nutraceutical

>  <GENERIC_NAME>
Vitamin C

>  <SYNONYMS>
Ascorbate; Ascorbic Acid; L-Ascorbate; L-Ascorbic Acid; L-Lyxoascorbic Acid; L-Xyloascorbic Acid

>  <BRANDS>
Adenex; Allercorb; Antiscorbic Vitamin; Antiscorbutic Vitamin; Arco-Cee; Ascoltin; Ascor-B.I.D.; Ascorb; Ascorbajen; Ascorbicab; Ascorbicap; Ascorbicin; Ascorbin; Ascorbutina; Ascorin; Ascorteal; Ascorvit; C-Level; C-Long; C-Quin; C-Span; C-Vimin; Cantan; Cantaxin; Catavin C; Ce Lent; Cebicure; Cebid; Cebion; Cebione; Cecon; Cee-Caps Td; Cee-Vite; Cegiolan; Ceglion; Celaskon; Celin; Cemagyl; Cemill; Cenetone; Cenolate; Cereon; Cergona; Cescorbat; Cetamid; Cetane; Cetane-Caps Tc; Cetane-Caps Td; Cetebe; Cetemican; Cevalin; Cevatine; Cevex; Cevi-Bid; Cevimin; Cevital; Cevitamic Acid; Cevitamin; Cevitan; Cevitex; Cewin; Ciamin; Cipca; Citriscorb; Colascor; Concemin; Davitamon C; Duoscorb; Hicee; Hybrin; IDO-C; Kyselina Askorbova; Laroscorbine; Lemascorb; Liqui-Cee; Meri-C; Natrascorb; Planavit C; Proscorbin; Redoxon; Ribena; Roscorbic; Scorbacid; Scorbu-C; Secorbate; Sodascorbate; Testascorbic; Vicelat; Vicin; Vicomin C; Viforcit; Viscorin; Vitace; Vitacee; Vitacimin; Vitacin; Vitamisin; Vitascorbol; Xitix

>  <CHEMICAL_FORMULA>
C6H8O6

>  <MOLECULAR_WEIGHT>
176.1241

>  <EXACT_MASS>
176.032087988

>  <IUPAC_NAME>
(5R)-5-[(1S)-1,2-dihydroxyethyl]-3,4-dihydroxy-2,5-dihydrofuran-2-one

>  <INCHI_IDENTIFIER>
InChI=1S/C6H8O6/c7-1-2(8)5-3(9)4(10)6(11)12-5/h2,5,7-10H,1H2/t2-,5+/m0/s1

>  <INCHI_KEY>
InChIKey=CIWBSHSKHKDKBQ-JLAZNSOCSA-N

>  <SMILES>
[H][C@@]1(OC(=O)C(O)=C1O)[C@@H](O)CO

>  <JCHEM_ACCEPTOR_COUNT>
5

>  <JCHEM_DONOR_COUNT>
4

>  <JCHEM_ACIDIC_PKA>
4.36

>  <JCHEM_BASIC_PKA>
-3

>  <JCHEM_PHYSIOLOGICAL_CHARGE>
-1

>  <ALOGPS_LOGP>
-1.6

>  <JCHEM_LOGP>
-1.9

>  <ALOGPS_LOGS>
0.14

>  <JCHEM_POLARIZABILITY>
14.93

>  <JCHEM_POLAR_SURFACE_AREA>
107.22

>  <JCHEM_REFRACTIVITY>
37.03

>  <JCHEM_ROTATABLE_BOND_COUNT>
2

>  <ALOGPS_SOLUBILITY>
2.45e+02 g/l

$$$$
127
  Mrv0541 02231214272D          

 14 13  0  0  0  0            999 V2000
    4.9504    0.2063    0.0000 N   0  0  0  0  0  0  0  0  0  0  0  0
    8.5226   -0.2063    0.0000 N   0  0  0  0  0  0  0  0  0  0  0  0
    2.0928    0.2063    0.0000 N   0  0  0  0  0  0  0  0  0  0  0  0
   11.3804   -0.2063    0.0000 N   0  0  0  0  0  0  0  0  0  0  0  0
    6.3793    0.2063    0.0000 C   0  0  0  0  0  0  0  0  0  0  0  0
    7.0938   -0.2063    0.0000 C   0  0  0  0  0  0  0  0  0  0  0  0
    5.6650   -0.2063    0.0000 C   0  0  0  0  0  0  0  0  0  0  0  0
    7.8082    0.2063    0.0000 C   0  0  0  0  0  0  0  0  0  0  0  0
    4.2361   -0.2063    0.0000 C   0  0  0  0  0  0  0  0  0  0  0  0
    9.2371    0.2063    0.0000 C   0  0  0  0  0  0  0  0  0  0  0  0
    3.5217    0.2063    0.0000 C   0  0  0  0  0  0  0  0  0  0  0  0
    9.9515   -0.2063    0.0000 C   0  0  0  0  0  0  0  0  0  0  0  0
    2.8072   -0.2063    0.0000 C   0  0  0  0  0  0  0  0  0  0  0  0
   10.6658    0.2063    0.0000 C   0  0  0  0  0  0  0  0  0  0  0  0
  1  7  1  0  0  0  0
  1  9  1  0  0  0  0
  2  8  1  0  0  0  0
  2 10  1  0  0  0  0
  3 13  1  0  0  0  0
  4 14  1  0  0  0  0
  5  6  1  0  0  0  0
  5  7  1  0  0  0  0
  6  8  1  0  0  0  0
  9 11  1  0  0  0  0
 10 12  1  0  0  0  0
 11 13  1  0  0  0  0
 12 14  1  0  0  0  0
M  END
>  <DRUGBANK_ID>
DB00127

>  <DRUG_GROUPS>
approved; nutraceutical

>  <GENERIC_NAME>
Spermine

>  <SYNONYMS>
1, 4-Bis(aminopropyl)butanediamine; 4,9-Diaza-1,12-dodecanediamine; 4,9-Diazadodecane-1,12-diamine; Spermin; Spermine dihydrate

>  <BRANDS>
Gerontine; Musculamine; Neuridine

>  <CHEMICAL_FORMULA>
C10H26N4

>  <MOLECULAR_WEIGHT>
202.3402

>  <EXACT_MASS>
202.215746852

>  <IUPAC_NAME>
(3-aminopropyl)({4-[(3-aminopropyl)amino]butyl})amine

>  <INCHI_IDENTIFIER>
InChI=1S/C10H26N4/c11-5-3-9-13-7-1-2-8-14-10-4-6-12/h13-14H,1-12H2

>  <INCHI_KEY>
InChIKey=PFNFFQXMRSDOHW-UHFFFAOYSA-N

>  <SMILES>
NCCCNCCCCNCCCN

>  <JCHEM_ACCEPTOR_COUNT>
4

>  <JCHEM_DONOR_COUNT>
4

>  <JCHEM_BASIC_PKA>
11.1

>  <JCHEM_PHYSIOLOGICAL_CHARGE>
4

>  <ALOGPS_LOGP>
-0.66

>  <JCHEM_LOGP>
-1.5

>  <ALOGPS_LOGS>
-2

>  <JCHEM_POLARIZABILITY>
26.69

>  <JCHEM_POLAR_SURFACE_AREA>
76.1

>  <JCHEM_REFRACTIVITY>
62.56

>  <JCHEM_ROTATABLE_BOND_COUNT>
11

>  <ALOGPS_SOLUBILITY>
2.19e+00 g/l

$$$$
128
  Mrv0541 02231214282D          

  9  8  0  0  1  0            999 V2000
    5.6655   -0.0784    0.0000 O   0  0  0  0  0  0  0  0  0  0  0  0
    2.0930    0.3341    0.0000 O   0  0  0  0  0  0  0  0  0  0  0  0
    4.9509    1.1592    0.0000 O   0  0  0  0  0  0  0  0  0  0  0  0
    2.8075   -0.9034    0.0000 O   0  0  0  0  0  0  0  0  0  0  0  0
    4.2365   -0.9034    0.0000 N   0  0  0  0  0  0  0  0  0  0  0  0
    4.2365   -0.0784    0.0000 C   0  0  1  0  0  0  0  0  0  0  0  0
    3.5220    0.3341    0.0000 C   0  0  0  0  0  0  0  0  0  0  0  0
    4.9509    0.3341    0.0000 C   0  0  0  0  0  0  0  0  0  0  0  0
    2.8075   -0.0784    0.0000 C   0  0  0  0  0  0  0  0  0  0  0  0
  1  8  1  0  0  0  0
  2  9  1  0  0  0  0
  3  8  2  0  0  0  0
  4  9  2  0  0  0  0
  6  5  1  1  0  0  0
  6  7  1  0  0  0  0
  6  8  1  0  0  0  0
  7  9  1  0  0  0  0
M  END
>  <DRUGBANK_ID>
DB00128

>  <DRUG_GROUPS>
approved; nutraceutical

>  <GENERIC_NAME>
L-Aspartic Acid

>  <SYNONYMS>
(+)-Aspartic acid; (2S)-Aspartic acid; (L)-Aspartic acid; (S)-Aminobutanedioic acid; (S)-Aspartic acid; Acide aspartique [INN-French]; Acido aspartico [INN-Spanish]; Acidum asparticum; Aminosuccinic acid; Asparagic acid; Asparaginic acid; Asparaginsaeure [German]; Aspartate; Aspartic acid; H-Asp-OH; L-(+)-Aspartic acid; L-2-Aminobutanedioic acid; L-Aminosuccinic acid; L-Asparagic acid; L-Asparaginic acid; L-Asparaginsaeure; L-Asparaginsyra; L-Aspartinsaeure

>  <BRANDS>
Aspatofort

>  <CHEMICAL_FORMULA>
C4H7NO4

>  <MOLECULAR_WEIGHT>
133.1027

>  <EXACT_MASS>
133.037507717

>  <IUPAC_NAME>
(2S)-2-aminobutanedioic acid

>  <INCHI_IDENTIFIER>
InChI=1S/C4H7NO4/c5-2(4(8)9)1-3(6)7/h2H,1,5H2,(H,6,7)(H,8,9)/t2-/m0/s1

>  <INCHI_KEY>
InChIKey=CKLJMWTZIZZHCS-REOHCLBHSA-N

>  <SMILES>
N[C@@H](CC(O)=O)C(O)=O

>  <JCHEM_ACCEPTOR_COUNT>
5

>  <JCHEM_DONOR_COUNT>
3

>  <JCHEM_ACIDIC_PKA>
1.7

>  <JCHEM_BASIC_PKA>
9.61

>  <JCHEM_PHYSIOLOGICAL_CHARGE>
-1

>  <ALOGPS_LOGP>
-3.5

>  <JCHEM_LOGP>
-3.5

>  <ALOGPS_LOGS>
0.03

>  <JCHEM_POLARIZABILITY>
11.28

>  <JCHEM_POLAR_SURFACE_AREA>
100.62

>  <JCHEM_REFRACTIVITY>
26.53

>  <JCHEM_ROTATABLE_BOND_COUNT>
3

>  <ALOGPS_SOLUBILITY>
1.42e+02 g/l

$$$$
129
  Mrv0541 02231214282D          

  9  8  0  0  1  0            999 V2000
    4.9509    0.8745    0.0000 O   0  0  0  0  0  0  0  0  0  0  0  0
    4.2365    2.1120    0.0000 O   0  0  0  0  0  0  0  0  0  0  0  0
    2.8075    1.2870    0.0000 N   0  0  0  0  0  0  0  0  0  0  0  0
    2.0930   -1.6005    0.0000 N   0  0  0  0  0  0  0  0  0  0  0  0
    3.5220    0.0495    0.0000 C   0  0  0  0  0  0  0  0  0  0  0  0
    2.8075   -0.3630    0.0000 C   0  0  0  0  0  0  0  0  0  0  0  0
    3.5220    0.8745    0.0000 C   0  0  1  0  0  0  0  0  0  0  0  0
    2.8075   -1.1880    0.0000 C   0  0  0  0  0  0  0  0  0  0  0  0
    4.2365    1.2870    0.0000 C   0  0  0  0  0  0  0  0  0  0  0  0
  1  9  1  0  0  0  0
  2  9  2  0  0  0  0
  7  3  1  6  0  0  0
  4  8  1  0  0  0  0
  5  6  1  0  0  0  0
  5  7  1  0  0  0  0
  6  8  1  0  0  0  0
  7  9  1  0  0  0  0
M  END
>  <DRUGBANK_ID>
DB00129

>  <DRUG_GROUPS>
approved; nutraceutical

>  <GENERIC_NAME>
L-Ornithine

>  <SYNONYMS>
(S)-2,5-Diaminopentanoate; (S)-2,5-Diaminopentanoic acid; (S)-2,5-diaminovaleric acid; (S)-ornithine

>  <BRANDS>
OKG

>  <CHEMICAL_FORMULA>
C5H12N2O2

>  <MOLECULAR_WEIGHT>
132.161

>  <EXACT_MASS>
132.089877638

>  <IUPAC_NAME>
(2S)-2,5-diaminopentanoic acid

>  <INCHI_IDENTIFIER>
InChI=1S/C5H12N2O2/c6-3-1-2-4(7)5(8)9/h4H,1-3,6-7H2,(H,8,9)/t4-/m0/s1

>  <INCHI_KEY>
InChIKey=AHLPHDHHMVZTML-BYPYZUCNSA-N

>  <SMILES>
NCCC[C@H](N)C(O)=O

>  <JCHEM_ACCEPTOR_COUNT>
4

>  <JCHEM_DONOR_COUNT>
3

>  <JCHEM_ACIDIC_PKA>
2.67

>  <JCHEM_BASIC_PKA>
10.29

>  <JCHEM_PHYSIOLOGICAL_CHARGE>
1

>  <ALOGPS_LOGP>
-3.6

>  <JCHEM_LOGP>
-3.7

>  <ALOGPS_LOGS>
0.11

>  <JCHEM_POLARIZABILITY>
13.77

>  <JCHEM_POLAR_SURFACE_AREA>
89.34

>  <JCHEM_REFRACTIVITY>
33.21

>  <JCHEM_ROTATABLE_BOND_COUNT>
4

>  <ALOGPS_SOLUBILITY>
1.72e+02 g/l

$$$$
130
  Mrv0541 02231214282D          

 10  9  0  0  1  0            999 V2000
    4.9509    0.8745    0.0000 O   0  0  0  0  0  0  0  0  0  0  0  0
    4.2365    2.1120    0.0000 O   0  0  0  0  0  0  0  0  0  0  0  0
    3.5220   -1.6005    0.0000 O   0  0  0  0  0  0  0  0  0  0  0  0
    2.8075    1.2870    0.0000 N   0  0  0  0  0  0  0  0  0  0  0  0
    2.0930   -1.6005    0.0000 N   0  0  0  0  0  0  0  0  0  0  0  0
    3.5220    0.0495    0.0000 C   0  0  0  0  0  0  0  0  0  0  0  0
    3.5220    0.8745    0.0000 C   0  0  1  0  0  0  0  0  0  0  0  0
    2.8075   -0.3630    0.0000 C   0  0  0  0  0  0  0  0  0  0  0  0
    4.2365    1.2870    0.0000 C   0  0  0  0  0  0  0  0  0  0  0  0
    2.8075   -1.1880    0.0000 C   0  0  0  0  0  0  0  0  0  0  0  0
  1  9  1  0  0  0  0
  2  9  2  0  0  0  0
  3 10  2  0  0  0  0
  7  4  1  6  0  0  0
  5 10  1  0  0  0  0
  6  7  1  0  0  0  0
  6  8  1  0  0  0  0
  7  9  1  0  0  0  0
  8 10  1  0  0  0  0
M  END
>  <DRUGBANK_ID>
DB00130

>  <DRUG_GROUPS>
approved; nutraceutical; investigational

>  <GENERIC_NAME>
L-Glutamine

>  <SYNONYMS>
(S)-2,5-diamino-5-oxopentanoic acid; L-(+)-glutamine; L-2-aminoglutaramic acid; L-glutamic acid -amide

>  <BRANDS>
Cebrogen; Earthlink Science Glutamine Chews Chocolate; Glavamin; Glutamine Express; Glutamine Fuel Mega; Glutamine Fuel Powder ; L-Glutamine Power; Saforis; Stimulina

>  <CHEMICAL_FORMULA>
C5H10N2O3

>  <MOLECULAR_WEIGHT>
146.1445

>  <EXACT_MASS>
146.069142196

>  <IUPAC_NAME>
(2S)-2-amino-4-carbamoylbutanoic acid

>  <INCHI_IDENTIFIER>
InChI=1S/C5H10N2O3/c6-3(5(9)10)1-2-4(7)8/h3H,1-2,6H2,(H2,7,8)(H,9,10)/t3-/m0/s1

>  <INCHI_KEY>
InChIKey=ZDXPYRJPNDTMRX-VKHMYHEASA-N

>  <SMILES>
N[C@@H](CCC(N)=O)C(O)=O

>  <JCHEM_ACCEPTOR_COUNT>
4

>  <JCHEM_DONOR_COUNT>
3

>  <JCHEM_ACIDIC_PKA>
2.15

>  <JCHEM_BASIC_PKA>
9.31

>  <JCHEM_PHYSIOLOGICAL_CHARGE>
0

>  <ALOGPS_LOGP>
-3.3

>  <JCHEM_LOGP>
-4

>  <ALOGPS_LOGS>
-0.17

>  <JCHEM_POLARIZABILITY>
13.85

>  <JCHEM_POLAR_SURFACE_AREA>
106.41

>  <JCHEM_REFRACTIVITY>
33.11

>  <JCHEM_ROTATABLE_BOND_COUNT>
4

>  <ALOGPS_SOLUBILITY>
9.78e+01 g/l

$$$$
131
  Mrv0541 02231214282D          

 23 25  0  0  1  0            999 V2000
    6.9922    2.1365    0.0000 P   0  0  0  0  0  0  0  0  0  0  0  0
    4.9010    0.6808    0.0000 O   0  0  0  0  0  0  0  0  0  0  0  0
    2.8071    1.0969    0.0000 O   0  0  0  0  0  0  0  0  0  0  0  0
    3.8647    2.5471    0.0000 O   0  0  0  0  0  0  0  0  0  0  0  0
    6.3238    1.6527    0.0000 O   0  0  0  0  0  0  0  0  0  0  0  0
    7.4759    1.4682    0.0000 O   0  0  0  0  0  0  0  0  0  0  0  0
    7.6604    2.6202    0.0000 O   0  0  0  0  0  0  0  0  0  0  0  0
    6.5084    2.8048    0.0000 O   0  0  0  0  0  0  0  0  0  0  0  0
    3.8597   -0.3570    0.0000 N   0  0  0  0  0  0  0  0  0  0  0  0
    3.8597   -1.6848    0.0000 N   0  0  0  0  0  0  0  0  0  0  0  0
    2.3645   -0.1959    0.0000 N   0  0  0  0  0  0  0  0  0  0  0  0
    1.6500   -1.4335    0.0000 N   0  0  0  0  0  0  0  0  0  0  0  0
    2.3645   -2.6710    0.0000 N   0  0  0  0  0  0  0  0  0  0  0  0
    3.6321    1.0955    0.0000 C   0  0  2  0  0  0  0  0  0  0  0  0
    4.1182    1.7621    0.0000 C   0  0  1  0  0  0  0  0  0  0  0  0
    4.1159    0.4272    0.0000 C   0  0  1  0  0  0  0  0  0  0  0  0
    4.9025    1.5058    0.0000 C   0  0  1  0  0  0  0  0  0  0  0  0
    5.5707    1.9896    0.0000 C   0  0  0  0  0  0  0  0  0  0  0  0
    3.0790   -0.6084    0.0000 C   0  0  0  0  0  0  0  0  0  0  0  0
    4.3411   -1.0210    0.0000 C   0  0  0  0  0  0  0  0  0  0  0  0
    3.0790   -1.4335    0.0000 C   0  0  0  0  0  0  0  0  0  0  0  0
    2.3645   -1.8460    0.0000 C   0  0  0  0  0  0  0  0  0  0  0  0
    1.6500   -0.6084    0.0000 C   0  0  0  0  0  0  0  0  0  0  0  0
  1  5  1  0  0  0  0
  1  6  1  0  0  0  0
  1  7  1  0  0  0  0
  1  8  2  0  0  0  0
  2 16  1  0  0  0  0
  2 17  1  0  0  0  0
 14  3  1  6  0  0  0
 15  4  1  6  0  0  0
  5 18  1  0  0  0  0
 16  9  1  1  0  0  0
  9 19  1  0  0  0  0
  9 20  1  0  0  0  0
 10 20  2  0  0  0  0
 10 21  1  0  0  0  0
 11 19  2  0  0  0  0
 11 23  1  0  0  0  0
 12 22  1  0  0  0  0
 12 23  2  0  0  0  0
 13 22  1  0  0  0  0
 14 15  1  0  0  0  0
 14 16  1  0  0  0  0
 15 17  1  0  0  0  0
 17 18  1  1  0  0  0
 19 21  1  0  0  0  0
 21 22  2  0  0  0  0
M  END
>  <DRUGBANK_ID>
DB00131

>  <DRUG_GROUPS>
approved; nutraceutical

>  <GENERIC_NAME>
Adenosine monophosphate

>  <SYNONYMS>
5'-Adenosine monophosphate; 5'-Adenylic acid; 5'-AMP; Adenosine 5'-(dihydrogen phosphate); Adenosine 5'-monophosphate; Adenosine 5'-phosphate; Adenosine 5'-phosphoric acid; Adenosine phosphate; Adenosine-5-monophosphoric acid; Adenosine-5'-Monophosphate; Adenosine-5'-monophosphoric acid; Adenylate; Adenylic acid; AMP; Phosphentaside

>  <BRANDS>
Adenovite; Cardiomone; Lycedan; My-B-Den; Phosaden; Phosphaden

>  <CHEMICAL_FORMULA>
C10H14N5O7P

>  <MOLECULAR_WEIGHT>
347.2212

>  <EXACT_MASS>
347.063084339

>  <IUPAC_NAME>
{[(2R,3S,4R,5R)-5-(6-amino-9H-purin-9-yl)-3,4-dihydroxyoxolan-2-yl]methoxy}phosphonic acid

>  <INCHI_IDENTIFIER>
InChI=1S/C10H14N5O7P/c11-8-5-9(13-2-12-8)15(3-14-5)10-7(17)6(16)4(22-10)1-21-23(18,19)20/h2-4,6-7,10,16-17H,1H2,(H2,11,12,13)(H2,18,19,20)/t4-,6-,7-,10-/m1/s1

>  <INCHI_KEY>
InChIKey=UDMBCSSLTHHNCD-KQYNXXCUSA-N

>  <SMILES>
NC1=C2N=CN([C@@H]3O[C@H](COP(O)(O)=O)[C@@H](O)[C@H]3O)C2=NC=N1

>  <JCHEM_ACCEPTOR_COUNT>
10

>  <JCHEM_DONOR_COUNT>
5

>  <JCHEM_ACIDIC_PKA>
1.23

>  <JCHEM_BASIC_PKA>
4.97

>  <JCHEM_PHYSIOLOGICAL_CHARGE>
-2

>  <ALOGPS_LOGP>
-3.1

>  <JCHEM_LOGP>
-4.8

>  <ALOGPS_LOGS>
-2

>  <JCHEM_POLARIZABILITY>
30

>  <JCHEM_POLAR_SURFACE_AREA>
186.07

>  <JCHEM_REFRACTIVITY>
74.07

>  <JCHEM_ROTATABLE_BOND_COUNT>
4

>  <ALOGPS_SOLUBILITY>
3.31e+00 g/l

$$$$
132
  Mrv0541 02231214282D          

 20 19  0  0  0  0            999 V2000
    2.3645    3.2217    0.0000 O   0  0  0  0  0  0  0  0  0  0  0  0
    1.6500    1.9842    0.0000 O   0  0  0  0  0  0  0  0  0  0  0  0
    3.7935   -0.0784    0.0000 C   0  0  0  0  0  0  0  0  0  0  0  0
    4.5080   -0.4909    0.0000 C   0  0  0  0  0  0  0  0  0  0  0  0
    3.7935    0.7466    0.0000 C   0  0  0  0  0  0  0  0  0  0  0  0
    4.5080   -1.3159    0.0000 C   0  0  0  0  0  0  0  0  0  0  0  0
    3.0791    1.1592    0.0000 C   0  0  0  0  0  0  0  0  0  0  0  0
    5.2224   -1.7284    0.0000 C   0  0  0  0  0  0  0  0  0  0  0  0
    3.0791    1.9842    0.0000 C   0  0  0  0  0  0  0  0  0  0  0  0
    5.2224   -2.5534    0.0000 C   0  0  0  0  0  0  0  0  0  0  0  0
    2.3645    2.3967    0.0000 C   0  0  0  0  0  0  0  0  0  0  0  0
    5.9370   -2.9659    0.0000 C   0  0  0  0  0  0  0  0  0  0  0  0
    6.6515   -2.5534    0.0000 C   0  0  0  0  0  0  0  0  0  0  0  0
    7.3659   -2.9659    0.0000 C   0  0  0  0  0  0  0  0  0  0  0  0
    8.0804   -2.5534    0.0000 C   0  0  0  0  0  0  0  0  0  0  0  0
    8.0804   -1.7284    0.0000 C   0  0  0  0  0  0  0  0  0  0  0  0
    8.7949   -1.3159    0.0000 C   0  0  0  0  0  0  0  0  0  0  0  0
    8.7949   -0.4909    0.0000 C   0  0  0  0  0  0  0  0  0  0  0  0
    8.0804   -0.0784    0.0000 C   0  0  0  0  0  0  0  0  0  0  0  0
    8.0804    0.7466    0.0000 C   0  0  0  0  0  0  0  0  0  0  0  0
  1 11  1  0  0  0  0
  2 11  2  0  0  0  0
  3  4  1  0  0  0  0
  3  5  1  0  0  0  0
  4  6  1  0  0  0  0
  5  7  1  0  0  0  0
  6  8  1  0  0  0  0
  7  9  1  0  0  0  0
  8 10  1  0  0  0  0
  9 11  1  0  0  0  0
 10 12  2  0  0  0  0
 12 13  1  0  0  0  0
 13 14  1  0  0  0  0
 14 15  2  0  0  0  0
 15 16  1  0  0  0  0
 16 17  1  0  0  0  0
 17 18  2  0  0  0  0
 18 19  1  0  0  0  0
 19 20  1  0  0  0  0
M  END
>  <DRUGBANK_ID>
DB00132

>  <DRUG_GROUPS>
approved; nutraceutical

>  <GENERIC_NAME>
Alpha-Linolenic Acid

>  <SYNONYMS>
(9Z,12Z,15Z)-Octadecatrienoic acid; 9,12,15-Octadecatrienoic acid; ALA; alpha-Linolenate; linolenate

>  <CHEMICAL_FORMULA>
C18H30O2

>  <MOLECULAR_WEIGHT>
278.4296

>  <EXACT_MASS>
278.224580204

>  <IUPAC_NAME>
(9Z,12Z,15Z)-octadeca-9,12,15-trienoic acid

>  <INCHI_IDENTIFIER>
InChI=1S/C18H30O2/c1-2-3-4-5-6-7-8-9-10-11-12-13-14-15-16-17-18(19)20/h3-4,6-7,9-10H,2,5,8,11-17H2,1H3,(H,19,20)/b4-3-,7-6-,10-9-

>  <INCHI_KEY>
InChIKey=DTOSIQBPPRVQHS-PDBXOOCHSA-N

>  <SMILES>
CC\C=C/C\C=C/C\C=C/CCCCCCCC(O)=O

>  <JCHEM_ACCEPTOR_COUNT>
2

>  <JCHEM_DONOR_COUNT>
1

>  <JCHEM_ACIDIC_PKA>
4.99

>  <JCHEM_PHYSIOLOGICAL_CHARGE>
-1

>  <ALOGPS_LOGP>
6.62

>  <JCHEM_LOGP>
6.06

>  <ALOGPS_LOGS>
-6

>  <JCHEM_POLARIZABILITY>
34.98

>  <JCHEM_POLAR_SURFACE_AREA>
37.3

>  <JCHEM_REFRACTIVITY>
89.64

>  <JCHEM_ROTATABLE_BOND_COUNT>
13

>  <ALOGPS_SOLUBILITY>
2.66e-04 g/l

$$$$
133
  Mrv0541 02231214282D          

  7  6  0  0  1  0            999 V2000
    2.0930   -0.9818    0.0000 O   0  0  0  0  0  0  0  0  0  0  0  0
    4.2365    0.2558    0.0000 O   0  0  0  0  0  0  0  0  0  0  0  0
    3.5220    1.4933    0.0000 O   0  0  0  0  0  0  0  0  0  0  0  0
    2.0930    0.6683    0.0000 N   0  0  0  0  0  0  0  0  0  0  0  0
    2.8075    0.2558    0.0000 C   0  0  1  0  0  0  0  0  0  0  0  0
    2.8075   -0.5693    0.0000 C   0  0  0  0  0  0  0  0  0  0  0  0
    3.5220    0.6683    0.0000 C   0  0  0  0  0  0  0  0  0  0  0  0
  1  6  1  0  0  0  0
  2  7  1  0  0  0  0
  3  7  2  0  0  0  0
  5  4  1  6  0  0  0
  5  6  1  0  0  0  0
  5  7  1  0  0  0  0
M  END
>  <DRUGBANK_ID>
DB00133

>  <DRUG_GROUPS>
approved; nutraceutical

>  <GENERIC_NAME>
L-Serine

>  <SYNONYMS>
(-)-Serine; (S)-2-Amino-3-hydroxypropanoic acid; (S)-a-Amino-b-hydroxypropionic acid; (S)-Serine; 2-Amino-3-hydroxypropionic acid; 3-Hydroxyalanine; b-Hydroxy-L-alanine; L-(-)-Serine; L-3-Hydroxy-2-aminopropionic acid; L-Ser; Serine

>  <CHEMICAL_FORMULA>
C3H7NO3

>  <MOLECULAR_WEIGHT>
105.0926

>  <EXACT_MASS>
105.042593095

>  <IUPAC_NAME>
(2S)-2-amino-3-hydroxypropanoic acid

>  <INCHI_IDENTIFIER>
InChI=1S/C3H7NO3/c4-2(1-5)3(6)7/h2,5H,1,4H2,(H,6,7)/t2-/m0/s1

>  <INCHI_KEY>
InChIKey=MTCFGRXMJLQNBG-REOHCLBHSA-N

>  <SMILES>
N[C@@H](CO)C(O)=O

>  <JCHEM_ACCEPTOR_COUNT>
4

>  <JCHEM_DONOR_COUNT>
3

>  <JCHEM_ACIDIC_PKA>
2.03

>  <JCHEM_BASIC_PKA>
8.93

>  <JCHEM_PHYSIOLOGICAL_CHARGE>
0

>  <ALOGPS_LOGP>
-3.4

>  <JCHEM_LOGP>
-3.9

>  <ALOGPS_LOGS>
0.66

>  <JCHEM_POLARIZABILITY>
9.43

>  <JCHEM_POLAR_SURFACE_AREA>
83.55

>  <JCHEM_REFRACTIVITY>
22.04

>  <JCHEM_ROTATABLE_BOND_COUNT>
2

>  <ALOGPS_SOLUBILITY>
4.80e+02 g/l

$$$$
134
  Mrv0541 02231214282D          

  9  8  0  0  1  0            999 V2000
    2.3642   -1.4436    0.0000 S   0  0  0  0  0  0  0  0  0  0  0  0
    4.5075    0.6187    0.0000 O   0  0  0  0  0  0  0  0  0  0  0  0
    3.7930    1.8561    0.0000 O   0  0  0  0  0  0  0  0  0  0  0  0
    2.3642    1.0312    0.0000 N   0  0  0  0  0  0  0  0  0  0  0  0
    3.0787   -0.2063    0.0000 C   0  0  0  0  0  0  0  0  0  0  0  0
    3.0787    0.6187    0.0000 C   0  0  1  0  0  0  0  0  0  0  0  0
    2.3642   -0.6187    0.0000 C   0  0  0  0  0  0  0  0  0  0  0  0
    3.7930    1.0312    0.0000 C   0  0  0  0  0  0  0  0  0  0  0  0
    1.6498   -1.8561    0.0000 C   0  0  0  0  0  0  0  0  0  0  0  0
  1  7  1  0  0  0  0
  1  9  1  0  0  0  0
  2  8  1  0  0  0  0
  3  8  2  0  0  0  0
  6  4  1  6  0  0  0
  5  6  1  0  0  0  0
  5  7  1  0  0  0  0
  6  8  1  0  0  0  0
M  END
>  <DRUGBANK_ID>
DB00134

>  <DRUG_GROUPS>
approved; nutraceutical

>  <GENERIC_NAME>
L-Methionine

>  <SYNONYMS>
(S)-2-amino-4-(methylthio)butanoic acid; (S)-2-amino-4-(methylthio)butyric acid; (S)-methionine; L-(-)-Methionine; L-a-Amino-g-methylthiobutyric acid; Methionine

>  <BRANDS>
Acimethin; Cymethion

>  <CHEMICAL_FORMULA>
C5H11NO2S

>  <MOLECULAR_WEIGHT>
149.211

>  <EXACT_MASS>
149.051049291

>  <IUPAC_NAME>
(2S)-2-amino-4-(methylsulfanyl)butanoic acid

>  <INCHI_IDENTIFIER>
InChI=1S/C5H11NO2S/c1-9-3-2-4(6)5(7)8/h4H,2-3,6H2,1H3,(H,7,8)/t4-/m0/s1

>  <INCHI_KEY>
InChIKey=FFEARJCKVFRZRR-BYPYZUCNSA-N

>  <SMILES>
CSCC[C@H](N)C(O)=O

>  <JCHEM_ACCEPTOR_COUNT>
3

>  <JCHEM_DONOR_COUNT>
2

>  <JCHEM_ACIDIC_PKA>
2.53

>  <JCHEM_BASIC_PKA>
9.5

>  <JCHEM_PHYSIOLOGICAL_CHARGE>
0

>  <ALOGPS_LOGP>
-1.9

>  <JCHEM_LOGP>
-2.2

>  <ALOGPS_LOGS>
-0.8

>  <JCHEM_POLARIZABILITY>
15.5

>  <JCHEM_POLAR_SURFACE_AREA>
63.32

>  <JCHEM_REFRACTIVITY>
37.59

>  <JCHEM_ROTATABLE_BOND_COUNT>
4

>  <ALOGPS_SOLUBILITY>
2.39e+01 g/l

$$$$
135
  Mrv0541 02231214282D          

 13 13  0  0  1  0            999 V2000
    3.7934    2.3471    0.0000 O   0  0  0  0  0  0  0  0  0  0  0  0
    2.3644   -2.6029    0.0000 O   0  0  0  0  0  0  0  0  0  0  0  0
    2.3644    2.3471    0.0000 O   0  0  0  0  0  0  0  0  0  0  0  0
    3.7934    0.6971    0.0000 N   0  0  0  0  0  0  0  0  0  0  0  0
    2.3644    0.6971    0.0000 C   0  0  0  0  0  0  0  0  0  0  0  0
    3.0790    1.1096    0.0000 C   0  0  1  0  0  0  0  0  0  0  0  0
    2.3644   -0.1279    0.0000 C   0  0  0  0  0  0  0  0  0  0  0  0
    3.0790   -0.5404    0.0000 C   0  0  0  0  0  0  0  0  0  0  0  0
    1.6500   -0.5404    0.0000 C   0  0  0  0  0  0  0  0  0  0  0  0
    3.0790    1.9346    0.0000 C   0  0  0  0  0  0  0  0  0  0  0  0
    3.0790   -1.3654    0.0000 C   0  0  0  0  0  0  0  0  0  0  0  0
    1.6500   -1.3654    0.0000 C   0  0  0  0  0  0  0  0  0  0  0  0
    2.3644   -1.7779    0.0000 C   0  0  0  0  0  0  0  0  0  0  0  0
  1 10  1  0  0  0  0
  2 13  1  0  0  0  0
  3 10  2  0  0  0  0
  6  4  1  1  0  0  0
  5  6  1  0  0  0  0
  5  7  1  0  0  0  0
  6 10  1  0  0  0  0
  7  8  2  0  0  0  0
  7  9  1  0  0  0  0
  8 11  1  0  0  0  0
  9 12  2  0  0  0  0
 11 13  2  0  0  0  0
 12 13  1  0  0  0  0
M  END
>  <DRUGBANK_ID>
DB00135

>  <DRUG_GROUPS>
approved; nutraceutical

>  <GENERIC_NAME>
L-Tyrosine

>  <SYNONYMS>
2-Amino-3-(p-hydroxyphenyl)propionic acid; 3-(p-Hydroxyphenyl)alanine; Free-Form L-Tyrosine

>  <BRANDS>
Rxosine; Tyrosine; Tyrosine Power

>  <CHEMICAL_FORMULA>
C9H11NO3

>  <MOLECULAR_WEIGHT>
181.1885

>  <EXACT_MASS>
181.073893223

>  <IUPAC_NAME>
(2S)-2-amino-3-(4-hydroxyphenyl)propanoic acid

>  <INCHI_IDENTIFIER>
InChI=1S/C9H11NO3/c10-8(9(12)13)5-6-1-3-7(11)4-2-6/h1-4,8,11H,5,10H2,(H,12,13)/t8-/m0/s1

>  <INCHI_KEY>
InChIKey=OUYCCCASQSFEME-QMMMGPOBSA-N

>  <SMILES>
N[C@@H](CC1=CC=C(O)C=C1)C(O)=O

>  <JCHEM_ACCEPTOR_COUNT>
4

>  <JCHEM_DONOR_COUNT>
3

>  <JCHEM_ACIDIC_PKA>
2

>  <JCHEM_BASIC_PKA>
9.19

>  <JCHEM_PHYSIOLOGICAL_CHARGE>
0

>  <ALOGPS_LOGP>
-2.4

>  <JCHEM_LOGP>
-1.5

>  <ALOGPS_LOGS>
-1.4

>  <JCHEM_POLARIZABILITY>
18.01

>  <JCHEM_POLAR_SURFACE_AREA>
83.55

>  <JCHEM_REFRACTIVITY>
47.1

>  <JCHEM_ROTATABLE_BOND_COUNT>
3

>  <ALOGPS_SOLUBILITY>
7.67e+00 g/l

$$$$

  Mrv0541 04191212032D          

 32 34  0  0  1  0            999 V2000
   -1.0890    1.2765    0.0000 C   0  0  0  0  0  0  0  0  0  0  0  0
   -1.0890   -0.3735    0.0000 C   0  0  0  0  0  0  0  0  0  0  0  0
    0.4101   -0.2159    0.0000 C   0  0  0  0  0  0  0  0  0  0  0  0
    0.8950    0.4515    0.0000 C   0  0  0  0  0  0  0  0  0  0  0  0
   -1.8035    0.8640    0.0000 C   0  0  0  0  0  0  0  0  0  0  0  0
   -1.0890   -1.1985    0.0000 C   0  0  0  0  0  0  0  0  0  0  0  0
   -1.8035    0.0390    0.0000 C   0  0  0  0  0  0  0  0  0  0  0  0
   -1.8035   -1.6110    0.0000 C   0  0  0  0  0  0  0  0  0  0  0  0
   -1.8035   -2.4360    0.0000 C   0  0  0  0  0  0  0  0  0  0  0  0
   -1.0890   -2.8485    0.0000 C   0  0  0  0  0  0  0  0  0  0  0  0
   -2.5179   -2.8485    0.0000 C   0  0  0  0  0  0  0  0  0  0  0  0
   -0.3745   -2.4360    0.0000 C   0  0  0  0  0  0  0  0  0  0  0  0
   -2.5179   -3.6735    0.0000 C   0  0  2  0  0  0  0  0  0  0  0  0
   -1.8035   -4.0860    0.0000 C   0  0  0  0  0  0  0  0  0  0  0  0
   -3.2324   -4.0860    0.0000 O   0  0  0  0  0  0  0  0  0  0  0  0
   -0.3044    2.3565    0.0000 C   0  0  0  0  0  0  0  0  0  0  0  0
    0.4101    1.9440    0.0000 C   0  0  2  0  0  0  0  0  0  0  0  0
    1.1246    2.3565    0.0000 C   0  0  0  0  0  0  0  0  0  0  0  0
    1.8390    1.9440    0.0000 C   0  0  0  0  0  0  0  0  0  0  0  0
    3.9825    2.3565    0.0000 C   0  0  0  0  0  0  0  0  0  0  0  0
    3.2680    1.1190    0.0000 C   0  0  0  0  0  0  0  0  0  0  0  0
    2.5535    2.3565    0.0000 C   0  0  0  0  0  0  0  0  0  0  0  0
    0.4101    1.1190    0.0000 C   0  0  2  0  0  0  0  0  0  0  0  0
    1.1246    1.5315    0.0000 H   0  0  0  0  0  0  0  0  0  0  0  0
   -0.3745    0.0390    0.0000 C   0  0  2  0  0  0  0  0  0  0  0  0
   -0.3745   -0.7860    0.0000 H   0  0  0  0  0  0  0  0  0  0  0  0
   -0.3745    0.8640    0.0000 C   0  0  2  0  0  0  0  0  0  0  0  0
   -0.3745    1.6890    0.0000 C   0  0  0  0  0  0  0  0  0  0  0  0
    3.2680    1.9440    0.0000 C   0  0  0  0  0  0  0  0  0  0  0  0
    3.9825    1.5315    0.0000 O   0  0  0  0  0  0  0  0  0  0  0  0
   -1.0890   -3.6735    0.0000 C   0  0  2  0  0  0  0  0  0  0  0  0
   -0.3745   -4.0860    0.0000 O   0  0  0  0  0  0  0  0  0  0  0  0
 25 27  1  0  0  0  0
 27 23  1  0  0  0  0
 27  1  1  0  0  0  0
 25  2  1  0  0  0  0
 25  3  1  0  0  0  0
 23  4  1  0  0  0  0
  1  5  1  0  0  0  0
  2  6  2  0  0  0  0
  2  7  1  0  0  0  0
  6  8  1  0  0  0  0
  8  9  2  0  0  0  0
  9 10  1  0  0  0  0
  9 11  1  0  0  0  0
 10 31  1  0  0  0  0
 10 12  2  0  0  0  0
 11 13  1  0  0  0  0
 31 14  1  0  0  0  0
 13 15  1  6  0  0  0
  3  4  1  0  0  0  0
  5  7  1  0  0  0  0
 13 14  1  0  0  0  0
 23 17  1  0  0  0  0
 17 16  1  6  0  0  0
 17 18  1  0  0  0  0
 18 19  1  0  0  0  0
 19 22  1  0  0  0  0
 22 29  1  0  0  0  0
 29 20  1  0  0  0  0
 29 21  1  0  0  0  0
 23 24  1  6  0  0  0
 25 26  1  6  0  0  0
 27 28  1  1  0  0  0
 29 30  1  0  0  0  0
 31 32  1  1  0  0  0
M  END
>  <DRUGBANK_ID>
DB00136

>  <DRUG_GROUPS>
approved; nutraceutical

>  <GENERIC_NAME>
Calcitriol

>  <SYNONYMS>
1,25-(OH)<sub>2</sub>D3; 1,25-dihydroxycholecalciferol

>  <BRANDS>
Calcijex; Calcitriol Oral Solution; Decostriol; Rocaltrol

>  <CHEMICAL_FORMULA>
C27H44O3

>  <MOLECULAR_WEIGHT>
416.6365

>  <EXACT_MASS>
416.329045274

>  <IUPAC_NAME>
(1R,3S,5Z)-5-{2-[(1R,3aS,4E,7aR)-1-[(2R)-6-hydroxy-6-methylheptan-2-yl]-7a-methyl-octahydro-1H-inden-4-ylidene]ethylidene}-4-methylidenecyclohexane-1,3-diol

>  <INCHI_IDENTIFIER>
InChI=1S/C27H44O3/c1-18(8-6-14-26(3,4)30)23-12-13-24-20(9-7-15-27(23,24)5)10-11-21-16-22(28)17-25(29)19(21)2/h10-11,18,22-25,28-30H,2,6-9,12-17H2,1,3-5H3/b20-10+,21-11-/t18-,22-,23-,24+,25+,27-/m1/s1

>  <INCHI_KEY>
InChIKey=GMRQFYUYWCNGIN-NKMMMXOESA-N

>  <SMILES>
C[C@H](CCCC(C)(C)O)[C@@]1([H])CC[C@@]2([H])\C(CCC[C@]12C)=C\C=C1\C[C@@H](O)C[C@H](O)C1=C

>  <JCHEM_ACCEPTOR_COUNT>
3

>  <JCHEM_DONOR_COUNT>
3

>  <JCHEM_ACIDIC_PKA>
14.39

>  <JCHEM_BASIC_PKA>
-1.3

>  <JCHEM_PHYSIOLOGICAL_CHARGE>
0

>  <ALOGPS_LOGP>
5.51

>  <JCHEM_LOGP>
4.35

>  <ALOGPS_LOGS>
-4.8

>  <JCHEM_POLARIZABILITY>
51.02

>  <JCHEM_POLAR_SURFACE_AREA>
60.69

>  <JCHEM_REFRACTIVITY>
126.53

>  <JCHEM_ROTATABLE_BOND_COUNT>
6

>  <ALOGPS_SOLUBILITY>
6.67e-03 g/l

$$$$
137
  Mrv0541 02231214282D          

 42 43  0  0  1  0            999 V2000
    3.1895   -8.4564    0.0000 O   0  0  0  0  0  0  0  0  0  0  0  0
    9.6200    8.4564    0.0000 O   0  0  0  0  0  0  0  0  0  0  0  0
    2.4751   -6.3939    0.0000 C   0  0  0  0  0  0  0  0  0  0  0  0
    3.1895   -5.9814    0.0000 C   0  0  0  0  0  0  0  0  0  0  0  0
    2.4751   -7.2189    0.0000 C   0  0  0  0  0  0  0  0  0  0  0  0
    3.1895   -7.6314    0.0000 C   0  0  0  0  0  0  0  0  0  0  0  0
    3.9041   -6.3939    0.0000 C   0  0  0  0  0  0  0  0  0  0  0  0
   10.3344    6.3939    0.0000 C   0  0  0  0  0  0  0  0  0  0  0  0
    2.0625   -5.6794    0.0000 C   0  0  0  0  0  0  0  0  0  0  0  0
    1.6500   -6.3939    0.0000 C   0  0  0  0  0  0  0  0  0  0  0  0
   10.3344    7.2189    0.0000 C   0  0  0  0  0  0  0  0  0  0  0  0
    3.9041   -7.2189    0.0000 C   0  0  0  0  0  0  0  0  0  0  0  0
    9.6200    7.6314    0.0000 C   0  0  0  0  0  0  0  0  0  0  0  0
    9.6200    5.9814    0.0000 C   0  0  0  0  0  0  0  0  0  0  0  0
    3.1895   -5.1564    0.0000 C   0  0  0  0  0  0  0  0  0  0  0  0
    8.9054    7.2189    0.0000 C   0  0  0  0  0  0  0  0  0  0  0  0
    8.9054    6.3939    0.0000 C   0  0  0  0  0  0  0  0  0  0  0  0
   10.7469    5.6794    0.0000 C   0  0  0  0  0  0  0  0  0  0  0  0
   11.1594    6.3939    0.0000 C   0  0  0  0  0  0  0  0  0  0  0  0
    4.6185   -5.9814    0.0000 C   0  0  0  0  0  0  0  0  0  0  0  0
    3.9041   -4.7439    0.0000 C   0  0  0  0  0  0  0  0  0  0  0  0
    9.6200    5.1564    0.0000 C   0  0  0  0  0  0  0  0  0  0  0  0
    8.1909    5.9814    0.0000 C   0  0  0  0  0  0  0  0  0  0  0  0
    3.9041   -3.9188    0.0000 C   0  0  0  0  0  0  0  0  0  0  0  0
    8.9054    4.7439    0.0000 C   0  0  0  0  0  0  0  0  0  0  0  0
    3.1895   -3.5063    0.0000 C   0  0  0  0  0  0  0  0  0  0  0  0
    8.9054    3.9188    0.0000 C   0  0  0  0  0  0  0  0  0  0  0  0
    4.6185   -3.5063    0.0000 C   0  0  0  0  0  0  0  0  0  0  0  0
    9.6200    3.5063    0.0000 C   0  0  0  0  0  0  0  0  0  0  0  0
    8.1909    3.5063    0.0000 C   0  0  0  0  0  0  0  0  0  0  0  0
    4.6185   -2.6813    0.0000 C   0  0  0  0  0  0  0  0  0  0  0  0
    8.1909    2.6813    0.0000 C   0  0  0  0  0  0  0  0  0  0  0  0
    5.3330   -2.2688    0.0000 C   0  0  0  0  0  0  0  0  0  0  0  0
    5.3330   -1.4438    0.0000 C   0  0  0  0  0  0  0  0  0  0  0  0
    7.4765    2.2688    0.0000 C   0  0  0  0  0  0  0  0  0  0  0  0
    7.4765    1.4438    0.0000 C   0  0  0  0  0  0  0  0  0  0  0  0
    4.6185   -1.0313    0.0000 C   0  0  0  0  0  0  0  0  0  0  0  0
    6.0475   -1.0313    0.0000 C   0  0  0  0  0  0  0  0  0  0  0  0
    6.7620    1.0313    0.0000 C   0  0  0  0  0  0  0  0  0  0  0  0
    8.1909    1.0313    0.0000 C   0  0  0  0  0  0  0  0  0  0  0  0
    6.0475   -0.2063    0.0000 C   0  0  0  0  0  0  0  0  0  0  0  0
    6.7620    0.2063    0.0000 C   0  0  0  0  0  0  0  0  0  0  0  0
  1  6  1  0  0  0  0
  2 13  1  0  0  0  0
  3  4  1  0  0  0  0
  3  5  1  0  0  0  0
  3  9  1  0  0  0  0
  3 10  1  0  0  0  0
  4  7  1  0  0  0  0
  4 15  1  0  0  0  0
  5  6  1  0  0  0  0
  6 12  1  0  0  0  0
  7 12  2  0  0  0  0
  7 20  1  0  0  0  0
  8 11  1  0  0  0  0
  8 14  1  0  0  0  0
  8 18  1  0  0  0  0
  8 19  1  0  0  0  0
 11 13  1  0  0  0  0
 13 16  1  0  0  0  0
 14 17  2  0  0  0  0
 14 22  1  0  0  0  0
 15 21  2  0  0  0  0
 16 17  1  0  0  0  0
 17 23  1  0  0  0  0
 21 24  1  0  0  0  0
 22 25  2  0  0  0  0
 24 26  1  0  0  0  0
 24 28  2  0  0  0  0
 25 27  1  0  0  0  0
 27 29  1  0  0  0  0
 27 30  2  0  0  0  0
 28 31  1  0  0  0  0
 30 32  1  0  0  0  0
 31 33  2  0  0  0  0
 32 35  2  0  0  0  0
 33 34  1  0  0  0  0
 34 37  1  0  0  0  0
 34 38  2  0  0  0  0
 35 36  1  0  0  0  0
 36 39  2  0  0  0  0
 36 40  1  0  0  0  0
 38 41  1  0  0  0  0
 39 42  1  0  0  0  0
 41 42  2  0  0  0  0
M  END
>  <DRUGBANK_ID>
DB00137

>  <DRUG_GROUPS>
approved; nutraceutical

>  <GENERIC_NAME>
Xanthophyll

>  <SYNONYMS>
(3R,3'R,6'R)-Lutein; (3R,3'R,6S)-4,5-Didehydro-5,6-Dihydro-Beta,Beta-Carotene-3,3'-Diol; (3R,3'R)-Beta,Beta-Carotene-3,3'-Diol, Lutein; 4,5-Didehydro-5,6-dihydro-beta,beta-carotene-3,3'-diol; All-trans-(+)-Xanthophyll; All-trans-Lutein; all-trans-Xanthophyll; beta,epsilon-Carotene-3,3'-diol; Lutein; Lutein ester; Luteine; Phylloxanthin; trans-Lutein; Vegetable lutein; Vegetable luteol

>  <BRANDS>
Bo-Xan

>  <CHEMICAL_FORMULA>
C40H56O2

>  <MOLECULAR_WEIGHT>
568.8714

>  <EXACT_MASS>
568.428031036

>  <IUPAC_NAME>
4-[(1E,3E,5E,7E,9E,11E,13E,15E,17E)-18-(4-hydroxy-2,6,6-trimethylcyclohex-1-en-1-yl)-3,7,12,16-tetramethyloctadeca-1,3,5,7,9,11,13,15,17-nonaen-1-yl]-3,5,5-trimethylcyclohex-2-en-1-ol

>  <INCHI_IDENTIFIER>
InChI=1S/C40H56O2/c1-29(17-13-19-31(3)21-23-37-33(5)25-35(41)27-39(37,7)8)15-11-12-16-30(2)18-14-20-32(4)22-24-38-34(6)26-36(42)28-40(38,9)10/h11-25,35-37,41-42H,26-28H2,1-10H3/b12-11+,17-13+,18-14+,23-21+,24-22+,29-15+,30-16+,31-19+,32-20+

>  <INCHI_KEY>
InChIKey=KBPHJBAIARWVSC-DKLMTRRASA-N

>  <SMILES>
C\C(\C=C\C=C(/C)\C=C\C1C(C)=CC(O)CC1(C)C)=C/C=C/C=C(\C)/C=C/C=C(\C)/C=C/C1=C(C)CC(O)CC1(C)C

>  <JCHEM_ACCEPTOR_COUNT>
2

>  <JCHEM_DONOR_COUNT>
2

>  <JCHEM_ACIDIC_PKA>
18.22

>  <JCHEM_BASIC_PKA>
-0.91

>  <JCHEM_PHYSIOLOGICAL_CHARGE>
0

>  <ALOGPS_LOGP>
8.29

>  <JCHEM_LOGP>
8.55

>  <ALOGPS_LOGS>
-5.9

>  <JCHEM_POLARIZABILITY>
72.79

>  <JCHEM_POLAR_SURFACE_AREA>
40.46

>  <JCHEM_REFRACTIVITY>
195.06

>  <JCHEM_ROTATABLE_BOND_COUNT>
10

>  <ALOGPS_SOLUBILITY>
7.32e-04 g/l

$$$$
138
  Mrv0541 02231214282D          

 14 13  0  0  1  0            999 V2000
    3.7935    0.5404    0.0000 S   0  0  0  0  0  0  0  0  0  0  0  0
    3.7935   -0.2846    0.0000 S   0  0  0  0  0  0  0  0  0  0  0  0
    5.9370    1.7779    0.0000 O   0  0  0  0  0  0  0  0  0  0  0  0
    2.3645   -2.7597    0.0000 O   0  0  0  0  0  0  0  0  0  0  0  0
    5.2224    3.0154    0.0000 O   0  0  0  0  0  0  0  0  0  0  0  0
    1.6500   -1.5222    0.0000 O   0  0  0  0  0  0  0  0  0  0  0  0
    3.7935    2.1904    0.0000 N   0  0  0  0  0  0  0  0  0  0  0  0
    3.7935   -1.9347    0.0000 N   0  0  0  0  0  0  0  0  0  0  0  0
    4.5080    1.7779    0.0000 C   0  0  1  0  0  0  0  0  0  0  0  0
    3.0791   -1.5222    0.0000 C   0  0  1  0  0  0  0  0  0  0  0  0
    4.5080    0.9529    0.0000 C   0  0  0  0  0  0  0  0  0  0  0  0
    3.0791   -0.6971    0.0000 C   0  0  0  0  0  0  0  0  0  0  0  0
    5.2224    2.1904    0.0000 C   0  0  0  0  0  0  0  0  0  0  0  0
    2.3645   -1.9347    0.0000 C   0  0  0  0  0  0  0  0  0  0  0  0
  1  2  1  0  0  0  0
  1 11  1  0  0  0  0
  2 12  1  0  0  0  0
  3 13  1  0  0  0  0
  4 14  1  0  0  0  0
  5 13  2  0  0  0  0
  6 14  2  0  0  0  0
  9  7  1  6  0  0  0
 10  8  1  6  0  0  0
  9 11  1  0  0  0  0
  9 13  1  0  0  0  0
 10 12  1  0  0  0  0
 10 14  1  0  0  0  0
M  END
>  <DRUGBANK_ID>
DB00138

>  <DRUG_GROUPS>
approved; nutraceutical

>  <GENERIC_NAME>
L-Cystine

>  <SYNONYMS>
(-)-Cystine; Cysteine disulfide; Cystine acid; L-alpha-Diamino-beta-dithiolactic acid; L-Dicysteine

>  <CHEMICAL_FORMULA>
C6H12N2O4S2

>  <MOLECULAR_WEIGHT>
240.3

>  <EXACT_MASS>
240.023848262

>  <IUPAC_NAME>
(2R)-2-amino-3-{[(2R)-2-amino-2-carboxyethyl]disulfanyl}propanoic acid

>  <INCHI_IDENTIFIER>
InChI=1S/C6H12N2O4S2/c7-3(5(9)10)1-13-14-2-4(8)6(11)12/h3-4H,1-2,7-8H2,(H,9,10)(H,11,12)/t3-,4-/m0/s1

>  <INCHI_KEY>
InChIKey=LEVWYRKDKASIDU-IMJSIDKUSA-N

>  <SMILES>
N[C@@H](CSSC[C@H](N)C(O)=O)C(O)=O

>  <JCHEM_ACCEPTOR_COUNT>
6

>  <JCHEM_DONOR_COUNT>
4

>  <JCHEM_ACIDIC_PKA>
1.56

>  <JCHEM_BASIC_PKA>
9.34

>  <JCHEM_PHYSIOLOGICAL_CHARGE>
0

>  <ALOGPS_LOGP>
-3.2

>  <JCHEM_LOGP>
-5.9

>  <ALOGPS_LOGS>
-1.2

>  <JCHEM_POLARIZABILITY>
22.67

>  <JCHEM_POLAR_SURFACE_AREA>
126.64

>  <JCHEM_REFRACTIVITY>
54.87

>  <JCHEM_ROTATABLE_BOND_COUNT>
7

>  <ALOGPS_SOLUBILITY>
1.68e+01 g/l

$$$$
139
  Mrv0541 02231214282D          

  8  7  0  0  0  0            999 V2000
    2.0928    0.2063    0.0000 O   0  0  0  0  0  0  0  0  0  0  0  0
    5.6650   -0.2063    0.0000 O   0  0  0  0  0  0  0  0  0  0  0  0
    2.8072   -1.0312    0.0000 O   0  0  0  0  0  0  0  0  0  0  0  0
    4.9504    1.0312    0.0000 O   0  0  0  0  0  0  0  0  0  0  0  0
    3.5217    0.2063    0.0000 C   0  0  0  0  0  0  0  0  0  0  0  0
    4.2361   -0.2063    0.0000 C   0  0  0  0  0  0  0  0  0  0  0  0
    2.8072   -0.2063    0.0000 C   0  0  0  0  0  0  0  0  0  0  0  0
    4.9504    0.2063    0.0000 C   0  0  0  0  0  0  0  0  0  0  0  0
  1  7  1  0  0  0  0
  2  8  1  0  0  0  0
  3  7  2  0  0  0  0
  4  8  2  0  0  0  0
  5  6  1  0  0  0  0
  5  7  1  0  0  0  0
  6  8  1  0  0  0  0
M  END
>  <DRUGBANK_ID>
DB00139

>  <DRUG_GROUPS>
approved; nutraceutical

>  <GENERIC_NAME>
Succinic acid

>  <SYNONYMS>
1,2-Ethanedicarboxylic acid; Amber acid; Asuccin; Bernsteinsaure; Butanedioic acid; Butanedionic acid; Spirit of amber; Succinate

>  <BRANDS>
Katasuccin; Kyselina jantarova

>  <CHEMICAL_FORMULA>
C4H6O4

>  <MOLECULAR_WEIGHT>
118.088

>  <EXACT_MASS>
118.02660868

>  <IUPAC_NAME>
butanedioic acid

>  <INCHI_IDENTIFIER>
InChI=1S/C4H6O4/c5-3(6)1-2-4(7)8/h1-2H2,(H,5,6)(H,7,8)

>  <INCHI_KEY>
InChIKey=KDYFGRWQOYBRFD-UHFFFAOYSA-N

>  <SMILES>
OC(=O)CCC(O)=O

>  <JCHEM_ACCEPTOR_COUNT>
4

>  <JCHEM_DONOR_COUNT>
2

>  <JCHEM_ACIDIC_PKA>
3.55

>  <JCHEM_PHYSIOLOGICAL_CHARGE>
-2

>  <ALOGPS_LOGP>
-0.53

>  <JCHEM_LOGP>
-0.4

>  <ALOGPS_LOGS>
0.25

>  <JCHEM_POLARIZABILITY>
10.14

>  <JCHEM_POLAR_SURFACE_AREA>
74.6

>  <JCHEM_REFRACTIVITY>
23.54

>  <JCHEM_ROTATABLE_BOND_COUNT>
3

>  <ALOGPS_SOLUBILITY>
2.11e+02 g/l

$$$$

  Mrv0541 02231214282D          

 27 29  0  0  0  0            999 V2000
    0.7145    0.4125    0.0000 C   0  0  0  0  0  0  0  0  0  0  0  0
    0.7145   -0.4125    0.0000 C   0  0  0  0  0  0  0  0  0  0  0  0
   -0.7145    0.4125    0.0000 C   0  0  0  0  0  0  0  0  0  0  0  0
   -0.7145   -0.4125    0.0000 C   0  0  0  0  0  0  0  0  0  0  0  0
   -1.4289    0.8250    0.0000 C   0  0  0  0  0  0  0  0  0  0  0  0
   -1.4289   -0.8250    0.0000 C   0  0  0  0  0  0  0  0  0  0  0  0
   -2.1434   -0.4125    0.0000 C   0  0  0  0  0  0  0  0  0  0  0  0
   -2.1434    0.4125    0.0000 C   0  0  0  0  0  0  0  0  0  0  0  0
    2.1434    0.4125    0.0000 C   0  0  0  0  0  0  0  0  0  0  0  0
    0.0000   -0.8250    0.0000 N   0  0  0  0  0  0  0  0  0  0  0  0
    1.4289    0.8250    0.0000 N   0  0  0  0  0  0  0  0  0  0  0  0
    1.4289   -0.8250    0.0000 C   0  0  0  0  0  0  0  0  0  0  0  0
    1.4289   -1.6500    0.0000 O   0  0  0  0  0  0  0  0  0  0  0  0
    2.8579    0.8250    0.0000 O   0  0  0  0  0  0  0  0  0  0  0  0
    2.1434   -0.4125    0.0000 N   0  0  0  0  0  0  0  0  0  0  0  0
    0.0000    0.8250    0.0000 N   0  0  0  0  0  0  0  0  0  0  0  0
    0.0000    1.6500    0.0000 C   0  0  0  0  0  0  0  0  0  0  0  0
   -0.7145    2.0625    0.0000 C   0  0  1  0  0  0  0  0  0  0  0  0
   -0.7145    2.8875    0.0000 C   0  0  1  0  0  0  0  0  0  0  0  0
   -1.4289    1.6500    0.0000 O   0  0  0  0  0  0  0  0  0  0  0  0
   -1.4289    3.3000    0.0000 C   0  0  1  0  0  0  0  0  0  0  0  0
    0.0000    3.3000    0.0000 O   0  0  0  0  0  0  0  0  0  0  0  0
   -1.4289    4.1250    0.0000 C   0  0  0  0  0  0  0  0  0  0  0  0
   -2.1434    2.8875    0.0000 O   0  0  0  0  0  0  0  0  0  0  0  0
   -2.1434    4.5375    0.0000 O   0  0  0  0  0  0  0  0  0  0  0  0
   -2.8579    0.8250    0.0000 C   0  0  0  0  0  0  0  0  0  0  0  0
   -2.8579   -0.8250    0.0000 C   0  0  0  0  0  0  0  0  0  0  0  0
 16  3  1  0  0  0  0
 16  1  1  0  0  0  0
  4 10  1  0  0  0  0
 10  2  2  0  0  0  0
 11  1  2  0  0  0  0
  2  1  1  0  0  0  0
  2 12  1  0  0  0  0
 11  9  1  0  0  0  0
 12 15  1  0  0  0  0
 15  9  1  0  0  0  0
  5  3  2  0  0  0  0
  3  4  1  0  0  0  0
  6  4  2  0  0  0  0
  5  8  1  0  0  0  0
  8  7  2  0  0  0  0
  7  6  1  0  0  0  0
  9 14  2  0  0  0  0
 12 13  2  0  0  0  0
 16 17  1  0  0  0  0
 17 18  1  0  0  0  0
 18 19  1  0  0  0  0
 18 20  1  6  0  0  0
 19 21  1  0  0  0  0
 19 22  1  1  0  0  0
 21 23  1  0  0  0  0
 21 24  1  6  0  0  0
 23 25  1  0  0  0  0
  8 26  1  0  0  0  0
  7 27  1  0  0  0  0
M  END
>  <DRUGBANK_ID>
DB00140

>  <DRUG_GROUPS>
approved; nutraceutical

>  <GENERIC_NAME>
Riboflavin

>  <SYNONYMS>
Lactoflavin; Lactoflavine; Riboflavina [INN-Spanish]; Riboflavine [INN-French]; Riboflavinum [INN-Latin]; Russupteridine Yellow III; Vitamin B2; Vitamin Bi; Vitamin G

>  <BRANDS>
Aqua-Flave; Beflavin; Beflavine; Bisulase; Dermadram; Fiboflavin; Flavaxin; Flavin Bb; Flaxain; HSDB 817; Hyflavin; Hyre; Lactobene; Ovoflavin; Ribipca; Ribocrisina; Riboderm; Ribosyn; Ribotone; Ribovel; Vitaflavine; Vitasan B2

>  <CHEMICAL_FORMULA>
C17H20N4O6

>  <MOLECULAR_WEIGHT>
376.3639

>  <EXACT_MASS>
376.138284392

>  <IUPAC_NAME>
7,8-dimethyl-10-[(2S,3S,4R)-2,3,4,5-tetrahydroxypentyl]-2H,3H,4H,10H-benzo[g]pteridine-2,4-dione

>  <INCHI_IDENTIFIER>
InChI=1S/C17H20N4O6/c1-7-3-9-10(4-8(7)2)21(5-11(23)14(25)12(24)6-22)15-13(18-9)16(26)20-17(27)19-15/h3-4,11-12,14,22-25H,5-6H2,1-2H3,(H,20,26,27)/t11-,12+,14-/m0/s1

>  <INCHI_KEY>
InChIKey=AUNGANRZJHBGPY-SCRDCRAPSA-N

>  <SMILES>
CC1=C(C)C=C2N(C[C@H](O)[C@H](O)[C@H](O)CO)C3=NC(=O)NC(=O)C3=NC2=C1

>  <JCHEM_ACCEPTOR_COUNT>
9

>  <JCHEM_DONOR_COUNT>
5

>  <JCHEM_ACIDIC_PKA>
6.97

>  <JCHEM_BASIC_PKA>
0.76

>  <JCHEM_PHYSIOLOGICAL_CHARGE>
-1

>  <ALOGPS_LOGP>
-1.1

>  <JCHEM_LOGP>
-0.92

>  <ALOGPS_LOGS>
-2.8

>  <JCHEM_POLARIZABILITY>
37.5

>  <JCHEM_POLAR_SURFACE_AREA>
155.05

>  <JCHEM_REFRACTIVITY>
96.27

>  <JCHEM_ROTATABLE_BOND_COUNT>
5

>  <ALOGPS_SOLUBILITY>
6.57e-01 g/l

$$$$

  Mrv0541 04191212032D          

 16 15  0  0  1  0            999 V2000
   12.1995   -5.4501    0.0000 C   0  0  0  0  0  0  0  0  0  0  0  0
   11.4851   -5.8626    0.0000 C   0  0  1  0  0  0  0  0  0  0  0  0
   10.7706   -5.4501    0.0000 C   0  0  2  0  0  0  0  0  0  0  0  0
   10.0561   -5.8626    0.0000 C   0  0  1  0  0  0  0  0  0  0  0  0
    9.3417   -5.4501    0.0000 C   0  0  2  0  0  0  0  0  0  0  0  0
   12.1995   -4.6251    0.0000 O   0  0  0  0  0  0  0  0  0  0  0  0
   10.7706   -4.6251    0.0000 O   0  0  0  0  0  0  0  0  0  0  0  0
   10.0561   -6.6876    0.0000 O   0  0  0  0  0  0  0  0  0  0  0  0
    9.3417   -4.6251    0.0000 O   0  0  0  0  0  0  0  0  0  0  0  0
   12.9140   -5.8626    0.0000 H   0  0  0  0  0  0  0  0  0  0  0  0
    8.6271   -5.8626    0.0000 C   0  0  0  0  0  0  0  0  0  0  0  0
    7.9127   -5.4501    0.0000 O   0  0  0  0  0  0  0  0  0  0  0  0
   11.4851   -6.6876    0.0000 N   0  0  0  0  0  0  0  0  0  0  0  0
   12.1995   -7.1001    0.0000 C   0  0  0  0  0  0  0  0  0  0  0  0
   12.9140   -6.6876    0.0000 O   0  0  0  0  0  0  0  0  0  0  0  0
   12.1995   -7.9251    0.0000 C   0  0  0  0  0  0  0  0  0  0  0  0
  6  1  2  0  0  0  0
  2  1  1  0  0  0  0
 10  1  1  0  0  0  0
  2 13  1  6  0  0  0
  3  2  1  0  0  0  0
  3  7  1  6  0  0  0
  4  3  1  0  0  0  0
  4  8  1  6  0  0  0
  5  4  1  0  0  0  0
  5  9  1  1  0  0  0
 11  5  1  0  0  0  0
 11 12  1  0  0  0  0
 15 14  2  0  0  0  0
 16 14  1  0  0  0  0
 13 14  1  0  0  0  0
M  END
>  <DRUGBANK_ID>
DB00141

>  <DRUG_GROUPS>
approved; nutraceutical

>  <GENERIC_NAME>
N-Acetyl-D-glucosamine

>  <SYNONYMS>
2-Acetamido-2-deoxy-D-glucose; GlcNAc; Glucosamine Complex; N-Acetylchitosamine

>  <BRANDS>
Aflexa; GS-500; Maxi GS; Natures Blend Glucosamine

>  <CHEMICAL_FORMULA>
C8H15NO6

>  <MOLECULAR_WEIGHT>
221.2078

>  <EXACT_MASS>
221.089937217

>  <IUPAC_NAME>
N-[(2R,3R,4S,5R)-3,4,5,6-tetrahydroxy-1-oxohexan-2-yl]acetamide

>  <INCHI_IDENTIFIER>
InChI=1S/C8H15NO6/c1-4(12)9-5(2-10)7(14)8(15)6(13)3-11/h2,5-8,11,13-15H,3H2,1H3,(H,9,12)/t5-,6+,7+,8+/m0/s1

>  <INCHI_KEY>
InChIKey=MBLBDJOUHNCFQT-LXGUWJNJSA-N

>  <SMILES>
[H]C(=O)[C@H](NC(C)=O)[C@@H](O)[C@H](O)[C@H](O)CO

>  <JCHEM_ACCEPTOR_COUNT>
6

>  <JCHEM_DONOR_COUNT>
5

>  <JCHEM_ACIDIC_PKA>
11.56

>  <JCHEM_BASIC_PKA>
-1.2

>  <JCHEM_PHYSIOLOGICAL_CHARGE>
0

>  <ALOGPS_LOGP>
-2.1

>  <JCHEM_LOGP>
-3.9

>  <ALOGPS_LOGS>
-0.18

>  <JCHEM_POLARIZABILITY>
20.49

>  <JCHEM_POLAR_SURFACE_AREA>
127.09

>  <JCHEM_REFRACTIVITY>
48.45

>  <JCHEM_ROTATABLE_BOND_COUNT>
6

>  <ALOGPS_SOLUBILITY>
1.48e+02 g/l

$$$$
142
  Mrv0541 02231214282D          

 10  9  0  0  1  0            999 V2000
    4.5079    0.8745    0.0000 O   0  0  0  0  0  0  0  0  0  0  0  0
    1.6500   -1.6005    0.0000 O   0  0  0  0  0  0  0  0  0  0  0  0
    3.7935    2.1120    0.0000 O   0  0  0  0  0  0  0  0  0  0  0  0
    3.0790   -1.6005    0.0000 O   0  0  0  0  0  0  0  0  0  0  0  0
    2.3645    1.2870    0.0000 N   0  0  0  0  0  0  0  0  0  0  0  0
    3.0790    0.0495    0.0000 C   0  0  0  0  0  0  0  0  0  0  0  0
    3.0790    0.8745    0.0000 C   0  0  1  0  0  0  0  0  0  0  0  0
    2.3645   -0.3630    0.0000 C   0  0  0  0  0  0  0  0  0  0  0  0
    3.7935    1.2870    0.0000 C   0  0  0  0  0  0  0  0  0  0  0  0
    2.3645   -1.1880    0.0000 C   0  0  0  0  0  0  0  0  0  0  0  0
  1  9  1  0  0  0  0
  2 10  1  0  0  0  0
  3  9  2  0  0  0  0
  4 10  2  0  0  0  0
  7  5  1  6  0  0  0
  6  7  1  0  0  0  0
  6  8  1  0  0  0  0
  7  9  1  0  0  0  0
  8 10  1  0  0  0  0
M  END
>  <DRUGBANK_ID>
DB00142

>  <DRUG_GROUPS>
approved; nutraceutical

>  <GENERIC_NAME>
L-Glutamic Acid

>  <SYNONYMS>
(2S)-2-Aminopentanedioic acid; (S)-(+)-Glutamic acid; (S)-2-Aminopentanedioic acid; (S)-Glutamic acid; 1-Aminopropane-1,3-dicarboxylic acid; 2-Aminoglutaric acid; 2-Aminopentanedioic acid; a-Aminoglutaric acid; a-Glutamic acid; Glutamic acid; Glutaminic acid; L-(+)-Glutamic acid; L-a-Aminoglutaric acid; L-Glutamate; L-Glutaminic acid

>  <BRANDS>
Aciglut; Glusate; Glutacid; Glutamicol; Glutamidex; Glutaminol; Glutaton

>  <CHEMICAL_FORMULA>
C5H9NO4

>  <MOLECULAR_WEIGHT>
147.1293

>  <EXACT_MASS>
147.053157781

>  <IUPAC_NAME>
(2S)-2-aminopentanedioic acid

>  <INCHI_IDENTIFIER>
InChI=1S/C5H9NO4/c6-3(5(9)10)1-2-4(7)8/h3H,1-2,6H2,(H,7,8)(H,9,10)/t3-/m0/s1

>  <INCHI_KEY>
InChIKey=WHUUTDBJXJRKMK-VKHMYHEASA-N

>  <SMILES>
N[C@@H](CCC(O)=O)C(O)=O

>  <JCHEM_ACCEPTOR_COUNT>
5

>  <JCHEM_DONOR_COUNT>
3

>  <JCHEM_ACIDIC_PKA>
1.88

>  <JCHEM_BASIC_PKA>
9.54

>  <JCHEM_PHYSIOLOGICAL_CHARGE>
-1

>  <ALOGPS_LOGP>
-3.5

>  <JCHEM_LOGP>
-3.2

>  <ALOGPS_LOGS>
-0.26

>  <JCHEM_POLARIZABILITY>
13.32

>  <JCHEM_POLAR_SURFACE_AREA>
100.62

>  <JCHEM_REFRACTIVITY>
31.29

>  <JCHEM_ROTATABLE_BOND_COUNT>
4

>  <ALOGPS_SOLUBILITY>
8.06e+01 g/l

$$$$
143
  Mrv0541 02231214282D          

 20 19  0  0  1  0            999 V2000
    6.3799   -1.1096    0.0000 S   0  0  0  0  0  0  0  0  0  0  0  0
    5.6655   -0.6971    0.0000 O   0  0  0  0  0  0  0  0  0  0  0  0
    7.8089    1.3654    0.0000 O   0  0  0  0  0  0  0  0  0  0  0  0
    2.0930    0.5404    0.0000 O   0  0  0  0  0  0  0  0  0  0  0  0
    2.8075   -0.6971    0.0000 O   0  0  0  0  0  0  0  0  0  0  0  0
   10.6668    0.5404    0.0000 O   0  0  0  0  0  0  0  0  0  0  0  0
    9.9524   -0.6971    0.0000 O   0  0  0  0  0  0  0  0  0  0  0  0
    6.3799    0.5404    0.0000 N   0  0  0  0  0  0  0  0  0  0  0  0
    3.5220    1.3654    0.0000 N   0  0  0  0  0  0  0  0  0  0  0  0
    8.5234    0.1279    0.0000 N   0  0  0  0  0  0  0  0  0  0  0  0
    4.2365    0.1279    0.0000 C   0  0  0  0  0  0  0  0  0  0  0  0
    4.9509    0.5404    0.0000 C   0  0  0  0  0  0  0  0  0  0  0  0
    7.0944    0.1279    0.0000 C   0  0  1  0  0  0  0  0  0  0  0  0
    3.5220    0.5404    0.0000 C   0  0  1  0  0  0  0  0  0  0  0  0
    5.6655    0.1279    0.0000 C   0  0  0  0  0  0  0  0  0  0  0  0
    7.0944   -0.6971    0.0000 C   0  0  0  0  0  0  0  0  0  0  0  0
    7.8089    0.5404    0.0000 C   0  0  0  0  0  0  0  0  0  0  0  0
    2.8075    0.1279    0.0000 C   0  0  0  0  0  0  0  0  0  0  0  0
    9.2379    0.5404    0.0000 C   0  0  0  0  0  0  0  0  0  0  0  0
    9.9524    0.1279    0.0000 C   0  0  0  0  0  0  0  0  0  0  0  0
  1 16  1  0  0  0  0
  2 15  2  0  0  0  0
  3 17  2  0  0  0  0
  4 18  1  0  0  0  0
  5 18  2  0  0  0  0
  6 20  1  0  0  0  0
  7 20  2  0  0  0  0
 13  8  1  6  0  0  0
  8 15  1  0  0  0  0
 14  9  1  1  0  0  0
 10 17  1  0  0  0  0
 10 19  1  0  0  0  0
 11 12  1  0  0  0  0
 11 14  1  0  0  0  0
 12 15  1  0  0  0  0
 13 16  1  0  0  0  0
 13 17  1  0  0  0  0
 14 18  1  0  0  0  0
 19 20  1  0  0  0  0
M  END
>  <DRUGBANK_ID>
DB00143

>  <DRUG_GROUPS>
approved; nutraceutical

>  <GENERIC_NAME>
Glutathione

>  <SYNONYMS>
5-L-Glutamyl-L-cysteinylglycine; gamma-L-Glutamyl-L-cysteinyl-glycine; Gluthathione; GSH; N-(N-gamma-L-Glutamyl-L-cysteinyl)glycine

>  <BRANDS>
Copren; Isethion; Ledac; Neuthion; Tathion

>  <CHEMICAL_FORMULA>
C10H17N3O6S

>  <MOLECULAR_WEIGHT>
307.323

>  <EXACT_MASS>
307.083805981

>  <IUPAC_NAME>
(2S)-2-amino-4-{[(1R)-1-[(carboxymethyl)carbamoyl]-2-sulfanylethyl]carbamoyl}butanoic acid

>  <INCHI_IDENTIFIER>
InChI=1S/C10H17N3O6S/c11-5(10(18)19)1-2-7(14)13-6(4-20)9(17)12-3-8(15)16/h5-6,20H,1-4,11H2,(H,12,17)(H,13,14)(H,15,16)(H,18,19)/t5-,6-/m0/s1

>  <INCHI_KEY>
InChIKey=RWSXRVCMGQZWBV-WDSKDSINSA-N

>  <SMILES>
N[C@@H](CCC(=O)N[C@@H](CS)C(=O)NCC(O)=O)C(O)=O

>  <JCHEM_ACCEPTOR_COUNT>
7

>  <JCHEM_DONOR_COUNT>
6

>  <JCHEM_ACIDIC_PKA>
1.94

>  <JCHEM_BASIC_PKA>
9.22

>  <JCHEM_PHYSIOLOGICAL_CHARGE>
-1

>  <ALOGPS_LOGP>
-2.7

>  <JCHEM_LOGP>
-4.9

>  <ALOGPS_LOGS>
-2.5

>  <JCHEM_POLARIZABILITY>
29.11

>  <JCHEM_POLAR_SURFACE_AREA>
158.82

>  <JCHEM_REFRACTIVITY>
69.11

>  <JCHEM_ROTATABLE_BOND_COUNT>
9

>  <ALOGPS_SOLUBILITY>
8.79e-01 g/l

$$$$
6323481
  Mrv0541 02231214282D          

 25 24  0  0  1  0            999 V2000
    7.3659    1.1096    0.0000 P   0  0  0  0  0  0  0  0  0  0  0  0
    4.5080    1.1096    0.0000 O   0  0  0  0  0  0  0  0  0  0  0  0
    6.6515    0.6971    0.0000 O   0  0  0  0  0  0  0  0  0  0  0  0
    4.5080   -0.5404    0.0000 O   0  0  0  0  0  0  0  0  0  0  0  0
    8.0804    1.5222    0.0000 O   0  0  0  0  0  0  0  0  0  0  0  0
    6.9534    1.8241    0.0000 O   0  0  0  0  0  0  0  0  0  0  0  0
    7.7784    0.3952    0.0000 O   0  0  0  0  0  0  0  0  0  0  0  0
    3.7935   -0.1279    0.0000 O   0  0  0  0  0  0  0  0  0  0  0  0
    5.2224   -1.7779    0.0000 O   0  0  0  0  0  0  0  0  0  0  0  0
   10.9383    1.5222    0.0000 O   0  0  0  0  0  0  0  0  0  0  0  0
   10.2239    0.2846    0.0000 O   0  0  0  0  0  0  0  0  0  0  0  0
    9.5094    2.3472    0.0000 N   0  0  0  0  0  0  0  0  0  0  0  0
    5.2224    0.6971    0.0000 C   0  0  1  0  0  0  0  0  0  0  0  0
    5.9370    1.1096    0.0000 C   0  0  0  0  0  0  0  0  0  0  0  0
    5.2224   -0.1279    0.0000 C   0  0  0  0  0  0  0  0  0  0  0  0
    3.0790    1.1096    0.0000 C   0  0  0  0  0  0  0  0  0  0  0  0
    3.7935    0.6971    0.0000 C   0  0  0  0  0  0  0  0  0  0  0  0
    2.3645    0.6971    0.0000 C   0  0  0  0  0  0  0  0  0  0  0  0
    8.7949    1.1096    0.0000 C   0  0  0  0  0  0  0  0  0  0  0  0
    9.5094    1.5222    0.0000 C   0  0  1  0  0  0  0  0  0  0  0  0
    1.6500    1.1096    0.0000 C   0  0  0  0  0  0  0  0  0  0  0  0
    4.5080   -1.3654    0.0000 C   0  0  0  0  0  0  0  0  0  0  0  0
    3.7935   -1.7779    0.0000 C   0  0  0  0  0  0  0  0  0  0  0  0
   10.2239    1.1096    0.0000 C   0  0  0  0  0  0  0  0  0  0  0  0
    3.7935   -2.6029    0.0000 C   0  0  0  0  0  0  0  0  0  0  0  0
  1  3  1  0  0  0  0
  1  5  1  0  0  0  0
  1  6  1  0  0  0  0
  1  7  2  0  0  0  0
 13  2  1  1  0  0  0
  2 17  1  0  0  0  0
  3 14  1  0  0  0  0
  4 15  1  0  0  0  0
  4 22  1  0  0  0  0
  5 19  1  0  0  0  0
  8 17  2  0  0  0  0
  9 22  2  0  0  0  0
 10 24  1  0  0  0  0
 11 24  2  0  0  0  0
 20 12  1  6  0  0  0
 13 14  1  0  0  0  0
 13 15  1  0  0  0  0
 16 17  1  0  0  0  0
 16 18  1  0  0  0  0
 18 21  1  0  0  0  0
 19 20  1  0  0  0  0
 20 24  1  0  0  0  0
 22 23  1  0  0  0  0
 23 25  1  0  0  0  0
M  END
>  <DRUGBANK_ID>
DB00144

>  <DRUG_GROUPS>
approved; nutraceutical

>  <GENERIC_NAME>
Phosphatidylserine

>  <SYNONYMS>
3-O-sn-Phosphatidyl-L-serine; O3-Phosphatidyl-L-serine; Phosphatidyl-L-serine

>  <BRANDS>
LifeExtension PS Caps

>  <CHEMICAL_FORMULA>
C13H24NO10P

>  <MOLECULAR_WEIGHT>
385.3041

>  <EXACT_MASS>
385.113782505

>  <IUPAC_NAME>
(2S)-2-amino-3-({[(2R)-2-(butanoyloxy)-3-(propanoyloxy)propoxy](hydroxy)phosphoryl}oxy)propanoic acid

>  <INCHI_IDENTIFIER>
InChI=1S/C13H24NO10P/c1-3-5-12(16)24-9(6-21-11(15)4-2)7-22-25(19,20)23-8-10(14)13(17)18/h9-10H,3-8,14H2,1-2H3,(H,17,18)(H,19,20)/t9-,10+/m1/s1

>  <INCHI_KEY>
InChIKey=UNJJBGNPUUVVFQ-ZJUUUORDSA-N

>  <SMILES>
CCCC(=O)O[C@H](COC(=O)CC)COP(O)(=O)OC[C@H](N)C(O)=O

>  <JCHEM_ACCEPTOR_COUNT>
7

>  <JCHEM_DONOR_COUNT>
3

>  <JCHEM_ACIDIC_PKA>
1.47

>  <JCHEM_BASIC_PKA>
9.38

>  <JCHEM_PHYSIOLOGICAL_CHARGE>
-1

>  <ALOGPS_LOGP>
-1

>  <JCHEM_LOGP>
-1.6

>  <ALOGPS_LOGS>
-2

>  <JCHEM_POLARIZABILITY>
35.58

>  <JCHEM_POLAR_SURFACE_AREA>
171.68

>  <JCHEM_REFRACTIVITY>
81.81

>  <JCHEM_ROTATABLE_BOND_COUNT>
15

>  <ALOGPS_SOLUBILITY>
3.70e+00 g/l

$$$$

  Mrv0541 02231214282D          

  5  4  0  0  0  0            999 V2000
    2.0930    0.6188    0.0000 O   0  0  0  0  0  0  0  0  0  0  0  0
    2.8075   -0.6188    0.0000 O   0  0  0  0  0  0  0  0  0  0  0  0
    4.2365    0.2063    0.0000 N   0  0  0  0  0  0  0  0  0  0  0  0
    3.5220    0.6188    0.0000 C   0  0  0  0  0  0  0  0  0  0  0  0
    2.8075    0.2063    0.0000 C   0  0  0  0  0  0  0  0  0  0  0  0
  1  5  1  0  0  0  0
  2  5  2  0  0  0  0
  3  4  1  0  0  0  0
  4  5  1  0  0  0  0
M  END
>  <DRUGBANK_ID>
DB00145

>  <DRUG_GROUPS>
approved; nutraceutical

>  <GENERIC_NAME>
Glycine

>  <SYNONYMS>
2-Aminoacetic acid; Aminoacetic acid; Aminoethanoic acid; Gly

>  <BRANDS>
Aciport; Glicoamin; Glycocoll; Glycolixir; Glycosthene; Gyn-Hydralin; Padil

>  <CHEMICAL_FORMULA>
C2H5NO2

>  <MOLECULAR_WEIGHT>
75.0666

>  <EXACT_MASS>
75.032028409

>  <IUPAC_NAME>
2-aminoacetic acid

>  <INCHI_IDENTIFIER>
InChI=1S/C2H5NO2/c3-1-2(4)5/h1,3H2,(H,4,5)

>  <INCHI_KEY>
InChIKey=DHMQDGOQFOQNFH-UHFFFAOYSA-N

>  <SMILES>
NCC(O)=O

>  <JCHEM_ACCEPTOR_COUNT>
3

>  <JCHEM_DONOR_COUNT>
2

>  <JCHEM_ACIDIC_PKA>
2.31

>  <JCHEM_BASIC_PKA>
9.24

>  <JCHEM_PHYSIOLOGICAL_CHARGE>
0

>  <ALOGPS_LOGP>
-3.3

>  <JCHEM_LOGP>
-3.4

>  <ALOGPS_LOGS>
0.87

>  <JCHEM_POLARIZABILITY>
6.65

>  <JCHEM_POLAR_SURFACE_AREA>
63.32

>  <JCHEM_REFRACTIVITY>
16

>  <JCHEM_ROTATABLE_BOND_COUNT>
1

>  <ALOGPS_SOLUBILITY>
5.52e+02 g/l

$$$$

  Mrv0541 04191212102D          

 31 33  0  0  1  0            999 V2000
   -1.0890    1.2765    0.0000 C   0  0  0  0  0  0  0  0  0  0  0  0
   -1.0890   -0.3735    0.0000 C   0  0  0  0  0  0  0  0  0  0  0  0
    0.4101   -0.2159    0.0000 C   0  0  0  0  0  0  0  0  0  0  0  0
    0.8950    0.4515    0.0000 C   0  0  0  0  0  0  0  0  0  0  0  0
   -1.8035    0.8640    0.0000 C   0  0  0  0  0  0  0  0  0  0  0  0
   -1.0890   -1.1985    0.0000 C   0  0  0  0  0  0  0  0  0  0  0  0
   -1.8035    0.0390    0.0000 C   0  0  0  0  0  0  0  0  0  0  0  0
   -1.8035   -1.6110    0.0000 C   0  0  0  0  0  0  0  0  0  0  0  0
   -1.8035   -2.4360    0.0000 C   0  0  0  0  0  0  0  0  0  0  0  0
   -1.0890   -2.8485    0.0000 C   0  0  0  0  0  0  0  0  0  0  0  0
   -2.5179   -2.8485    0.0000 C   0  0  0  0  0  0  0  0  0  0  0  0
   -1.0890   -3.6735    0.0000 C   0  0  0  0  0  0  0  0  0  0  0  0
   -0.3745   -2.4360    0.0000 C   0  0  0  0  0  0  0  0  0  0  0  0
   -2.5179   -3.6735    0.0000 C   0  0  2  0  0  0  0  0  0  0  0  0
   -1.8035   -4.0860    0.0000 C   0  0  0  0  0  0  0  0  0  0  0  0
   -3.2324   -4.0860    0.0000 O   0  0  0  0  0  0  0  0  0  0  0  0
   -0.3044    2.3565    0.0000 C   0  0  0  0  0  0  0  0  0  0  0  0
    0.4101    1.9440    0.0000 C   0  0  2  0  0  0  0  0  0  0  0  0
    1.1246    2.3565    0.0000 C   0  0  0  0  0  0  0  0  0  0  0  0
    1.8390    1.9440    0.0000 C   0  0  0  0  0  0  0  0  0  0  0  0
    3.9825    2.3565    0.0000 C   0  0  0  0  0  0  0  0  0  0  0  0
    3.2680    1.1190    0.0000 C   0  0  0  0  0  0  0  0  0  0  0  0
    2.5535    2.3565    0.0000 C   0  0  0  0  0  0  0  0  0  0  0  0
    0.4101    1.1190    0.0000 C   0  0  2  0  0  0  0  0  0  0  0  0
    1.1246    1.5315    0.0000 H   0  0  0  0  0  0  0  0  0  0  0  0
   -0.3745    0.0390    0.0000 C   0  0  2  0  0  0  0  0  0  0  0  0
   -0.3745   -0.7860    0.0000 H   0  0  0  0  0  0  0  0  0  0  0  0
   -0.3745    0.8640    0.0000 C   0  0  2  0  0  0  0  0  0  0  0  0
   -0.3745    1.6890    0.0000 C   0  0  0  0  0  0  0  0  0  0  0  0
    3.2680    1.9440    0.0000 C   0  0  0  0  0  0  0  0  0  0  0  0
    3.9825    1.5315    0.0000 O   0  0  0  0  0  0  0  0  0  0  0  0
 26 28  1  0  0  0  0
 28 24  1  0  0  0  0
 28  1  1  0  0  0  0
 26  2  1  0  0  0  0
 26  3  1  0  0  0  0
 24  4  1  0  0  0  0
  1  5  1  0  0  0  0
  2  6  2  0  0  0  0
  2  7  1  0  0  0  0
  6  8  1  0  0  0  0
  8  9  2  0  0  0  0
  9 10  1  0  0  0  0
  9 11  1  0  0  0  0
 10 12  1  0  0  0  0
 10 13  2  0  0  0  0
 11 14  1  0  0  0  0
 12 15  1  0  0  0  0
 14 16  1  6  0  0  0
  3  4  1  0  0  0  0
  5  7  1  0  0  0  0
 14 15  1  0  0  0  0
 24 18  1  0  0  0  0
 18 17  1  6  0  0  0
 18 19  1  0  0  0  0
 19 20  1  0  0  0  0
 20 23  1  0  0  0  0
 23 30  1  0  0  0  0
 30 21  1  0  0  0  0
 30 22  1  0  0  0  0
 24 25  1  6  0  0  0
 26 27  1  6  0  0  0
 28 29  1  1  0  0  0
 30 31  1  0  0  0  0
M  END
>  <DRUGBANK_ID>
DB00146

>  <DRUG_GROUPS>
approved; nutraceutical

>  <GENERIC_NAME>
Calcidiol

>  <SYNONYMS>
Calcifediol; Calcifediol Anhydrous; Calcifediolum [INN-Latin]; Calcifidiol

>  <BRANDS>
Calderol; Delakmin

>  <CHEMICAL_FORMULA>
C27H44O2

>  <MOLECULAR_WEIGHT>
400.6371

>  <EXACT_MASS>
400.334130652

>  <IUPAC_NAME>
(1S,3Z)-3-{2-[(1R,3aS,4E,7aR)-1-[(2R)-6-hydroxy-6-methylheptan-2-yl]-7a-methyl-octahydro-1H-inden-4-ylidene]ethylidene}-4-methylidenecyclohexan-1-ol

>  <INCHI_IDENTIFIER>
InChI=1S/C27H44O2/c1-19-10-13-23(28)18-22(19)12-11-21-9-7-17-27(5)24(14-15-25(21)27)20(2)8-6-16-26(3,4)29/h11-12,20,23-25,28-29H,1,6-10,13-18H2,2-5H3/b21-11+,22-12-/t20-,23+,24-,25+,27-/m1/s1

>  <INCHI_KEY>
InChIKey=JWUBBDSIWDLEOM-DTOXIADCSA-N

>  <SMILES>
C[C@H](CCCC(C)(C)O)[C@@]1([H])CC[C@@]2([H])\C(CCC[C@]12C)=C\C=C1\C[C@@H](O)CCC1=C

>  <JCHEM_ACCEPTOR_COUNT>
2

>  <JCHEM_DONOR_COUNT>
2

>  <JCHEM_ACIDIC_PKA>
18.38

>  <JCHEM_BASIC_PKA>
-0.98

>  <JCHEM_PHYSIOLOGICAL_CHARGE>
0

>  <ALOGPS_LOGP>
6.71

>  <JCHEM_LOGP>
5.65

>  <ALOGPS_LOGS>
-5.3

>  <JCHEM_POLARIZABILITY>
50.32

>  <JCHEM_POLAR_SURFACE_AREA>
40.46

>  <JCHEM_REFRACTIVITY>
125.06

>  <JCHEM_ROTATABLE_BOND_COUNT>
6

>  <ALOGPS_SOLUBILITY>
2.20e-03 g/l

$$$$
147
  Mrv0541 02231214282D          

 12 12  0  0  0  0            999 V2000
    2.0930    0.2063    0.0000 O   0  0  0  0  0  0  0  0  0  0  0  0
    5.6655   -0.2063    0.0000 O   0  0  0  0  0  0  0  0  0  0  0  0
    2.8075    1.4438    0.0000 O   0  0  0  0  0  0  0  0  0  0  0  0
    3.5220   -1.4438    0.0000 N   0  0  0  0  0  0  0  0  0  0  0  0
    4.2365   -0.2063    0.0000 C   0  0  0  0  0  0  0  0  0  0  0  0
    3.5220    0.2063    0.0000 C   0  0  0  0  0  0  0  0  0  0  0  0
    2.8075   -0.2063    0.0000 C   0  0  0  0  0  0  0  0  0  0  0  0
    2.8075   -1.0313    0.0000 C   0  0  0  0  0  0  0  0  0  0  0  0
    4.9509    0.2063    0.0000 C   0  0  0  0  0  0  0  0  0  0  0  0
    4.2365   -1.0313    0.0000 C   0  0  0  0  0  0  0  0  0  0  0  0
    2.0930   -1.4438    0.0000 C   0  0  0  0  0  0  0  0  0  0  0  0
    3.5220    1.0313    0.0000 C   0  0  0  0  0  0  0  0  0  0  0  0
  1  7  1  0  0  0  0
  2  9  1  0  0  0  0
  3 12  2  0  0  0  0
  4  8  2  0  0  0  0
  4 10  1  0  0  0  0
  5  6  1  0  0  0  0
  5  9  1  0  0  0  0
  5 10  2  0  0  0  0
  6  7  2  0  0  0  0
  6 12  1  0  0  0  0
  7  8  1  0  0  0  0
  8 11  1  0  0  0  0
M  END
>  <DRUGBANK_ID>
DB00147

>  <DRUG_GROUPS>
approved; nutraceutical

>  <GENERIC_NAME>
Pyridoxal

>  <SYNONYMS>
PL; Pyridoxaldehyde; Vitamin B6 hydrochloride

>  <CHEMICAL_FORMULA>
C8H9NO3

>  <MOLECULAR_WEIGHT>
167.162

>  <EXACT_MASS>
167.058243159

>  <IUPAC_NAME>
3-hydroxy-5-(hydroxymethyl)-2-methylpyridine-4-carbaldehyde

>  <INCHI_IDENTIFIER>
InChI=1S/C8H9NO3/c1-5-8(12)7(4-11)6(3-10)2-9-5/h2,4,10,12H,3H2,1H3

>  <INCHI_KEY>
InChIKey=RADKZDMFGJYCBB-UHFFFAOYSA-N

>  <SMILES>
CC1=NC=C(CO)C(C=O)=C1O

>  <JCHEM_ACCEPTOR_COUNT>
4

>  <JCHEM_DONOR_COUNT>
2

>  <JCHEM_ACIDIC_PKA>
7.97

>  <JCHEM_BASIC_PKA>
4.11

>  <JCHEM_PHYSIOLOGICAL_CHARGE>
0

>  <ALOGPS_LOGP>
0.02

>  <JCHEM_LOGP>
0.18

>  <ALOGPS_LOGS>
-1.2

>  <JCHEM_POLARIZABILITY>
16.28

>  <JCHEM_POLAR_SURFACE_AREA>
70.42

>  <JCHEM_REFRACTIVITY>
43.87

>  <JCHEM_ROTATABLE_BOND_COUNT>
2

>  <ALOGPS_SOLUBILITY>
1.17e+01 g/l

$$$$
148
  Mrv0541 02231214282D          

  9  8  0  0  0  0            999 V2000
    5.6655   -0.0784    0.0000 O   0  0  0  0  0  0  0  0  0  0  0  0
    4.9509    1.1592    0.0000 O   0  0  0  0  0  0  0  0  0  0  0  0
    3.5220    0.3341    0.0000 N   0  0  0  0  0  0  0  0  0  0  0  0
    2.0930    0.3341    0.0000 N   0  0  0  0  0  0  0  0  0  0  0  0
    2.8075   -0.9034    0.0000 N   0  0  0  0  0  0  0  0  0  0  0  0
    4.2365   -0.0784    0.0000 C   0  0  0  0  0  0  0  0  0  0  0  0
    3.5220    1.1592    0.0000 C   0  0  0  0  0  0  0  0  0  0  0  0
    2.8075   -0.0784    0.0000 C   0  0  0  0  0  0  0  0  0  0  0  0
    4.9509    0.3341    0.0000 C   0  0  0  0  0  0  0  0  0  0  0  0
  1  9  1  0  0  0  0
  2  9  2  0  0  0  0
  3  6  1  0  0  0  0
  3  7  1  0  0  0  0
  3  8  1  0  0  0  0
  4  8  1  0  0  0  0
  5  8  2  0  0  0  0
  6  9  1  0  0  0  0
M  END
>  <DRUGBANK_ID>
DB00148

>  <DRUG_GROUPS>
approved; nutraceutical

>  <GENERIC_NAME>
Creatine

>  <SYNONYMS>
(alpha-Methylguanido)acetic acid; Creatine (8CI); Creatine, hydrate; Methylguanidoacetic acid; N-Amidinosarcosine; N-Methyl-N-guanylglycine

>  <BRANDS>
Cosmocair C 100; Creatin; Kreatin; Krebiozon; Phosphagen; Pyrolysate

>  <CHEMICAL_FORMULA>
C4H9N3O2

>  <MOLECULAR_WEIGHT>
131.1332

>  <EXACT_MASS>
131.069476547

>  <IUPAC_NAME>
2-(1-methylcarbamimidamido)acetic acid

>  <INCHI_IDENTIFIER>
InChI=1S/C4H9N3O2/c1-7(4(5)6)2-3(8)9/h2H2,1H3,(H3,5,6)(H,8,9)

>  <INCHI_KEY>
InChIKey=CVSVTCORWBXHQV-UHFFFAOYSA-N

>  <SMILES>
CN(CC(O)=O)C(N)=N

>  <JCHEM_ACCEPTOR_COUNT>
5

>  <JCHEM_DONOR_COUNT>
3

>  <JCHEM_ACIDIC_PKA>
3.5

>  <JCHEM_BASIC_PKA>
12.43

>  <JCHEM_PHYSIOLOGICAL_CHARGE>
0

>  <ALOGPS_LOGP>
-1.6

>  <JCHEM_LOGP>
-2.9

>  <ALOGPS_LOGS>
-1.5

>  <JCHEM_POLARIZABILITY>
12.17

>  <JCHEM_POLAR_SURFACE_AREA>
90.41

>  <JCHEM_REFRACTIVITY>
42.01

>  <JCHEM_ROTATABLE_BOND_COUNT>
2

>  <ALOGPS_SOLUBILITY>
4.11e+00 g/l

$$$$

  Mrv0541 04191212102D          

  9  8  0  0  1  0            999 V2000
    1.7862   -0.2063    0.0000 O   0  0  0  0  0  0  0  0  0  0  0  0
   -1.7862    0.2063    0.0000 C   0  0  0  0  0  0  0  0  0  0  0  0
   -0.3572    0.2063    0.0000 C   0  0  0  0  0  0  0  0  0  0  0  0
    1.0717    0.2062    0.0000 C   0  0  0  0  0  0  0  0  0  0  0  0
    1.0717    1.0312    0.0000 O   0  0  0  0  0  0  0  0  0  0  0  0
    0.3572   -0.2063    0.0000 C   0  0  1  0  0  0  0  0  0  0  0  0
    0.3572   -1.0313    0.0000 N   0  0  0  0  0  0  0  0  0  0  0  0
   -1.0717   -0.2062    0.0000 C   0  0  0  0  0  0  0  0  0  0  0  0
   -1.0717   -1.0313    0.0000 C   0  0  0  0  0  0  0  0  0  0  0  0
  1  4  1  0  0  0  0
  6  4  1  0  0  0  0
  3  6  1  0  0  0  0
  8  3  1  0  0  0  0
  2  8  1  0  0  0  0
  4  5  2  0  0  0  0
  6  7  1  1  0  0  0
  8  9  1  0  0  0  0
M  END
>  <DRUGBANK_ID>
DB00149

>  <DRUG_GROUPS>
approved; nutraceutical

>  <GENERIC_NAME>
L-Leucine

>  <SYNONYMS>
(2S)-2-Amino-4-methylpentanoic acid; (S)-(+)-Leucine; (S)-2-Amino-4-methylpentanoic acid; (S)-2-Amino-4-methylvaleric acid; (S)-Leucine; 1-Leucine; 2-Amino-4-methylpentanoic acid; 2-Amino-4-methylvaleric acid; alpha-Amino-gamma-methylvaleric acid; alpha-Aminoisocaproic acid; L-(-)-2-Amino-4-methylpentanoic acid; L-(+)-Leucine; L-a-Aminoisocaproic acid; Leu; Leucin; Leucine

>  <CHEMICAL_FORMULA>
C6H13NO2

>  <MOLECULAR_WEIGHT>
131.1729

>  <EXACT_MASS>
131.094628665

>  <IUPAC_NAME>
(2S)-2-amino-4-methylpentanoic acid

>  <INCHI_IDENTIFIER>
InChI=1S/C6H13NO2/c1-4(2)3-5(7)6(8)9/h4-5H,3,7H2,1-2H3,(H,8,9)/t5-/m0/s1

>  <INCHI_KEY>
InChIKey=ROHFNLRQFUQHCH-YFKPBYRVSA-N

>  <SMILES>
CC(C)C[C@H](N)C(O)=O

>  <JCHEM_ACCEPTOR_COUNT>
3

>  <JCHEM_DONOR_COUNT>
2

>  <JCHEM_ACIDIC_PKA>
2.79

>  <JCHEM_BASIC_PKA>
9.52

>  <JCHEM_PHYSIOLOGICAL_CHARGE>
0

>  <ALOGPS_LOGP>
-1.8

>  <JCHEM_LOGP>
-1.6

>  <ALOGPS_LOGS>
-0.27

>  <JCHEM_POLARIZABILITY>
14.16

>  <JCHEM_POLAR_SURFACE_AREA>
63.32

>  <JCHEM_REFRACTIVITY>
34.17

>  <JCHEM_ROTATABLE_BOND_COUNT>
3

>  <ALOGPS_SOLUBILITY>
6.98e+01 g/l

$$$$
150
  Mrv0541 02231214282D          

 15 16  0  0  1  0            999 V2000
    5.9868    1.6183    0.0000 O   0  0  0  0  0  0  0  0  0  0  0  0
    4.6286    2.0622    0.0000 O   0  0  0  0  0  0  0  0  0  0  0  0
    3.8597   -1.6183    0.0000 N   0  0  0  0  0  0  0  0  0  0  0  0
    5.4742    0.0498    0.0000 N   0  0  0  0  0  0  0  0  0  0  0  0
    3.8597   -0.2904    0.0000 C   0  0  0  0  0  0  0  0  0  0  0  0
    4.1159    0.4938    0.0000 C   0  0  0  0  0  0  0  0  0  0  0  0
    3.0791   -0.5418    0.0000 C   0  0  0  0  0  0  0  0  0  0  0  0
    4.9232    0.6639    0.0000 C   0  0  1  0  0  0  0  0  0  0  0  0
    3.0791   -1.3668    0.0000 C   0  0  0  0  0  0  0  0  0  0  0  0
    4.3412   -0.9543    0.0000 C   0  0  0  0  0  0  0  0  0  0  0  0
    2.3645   -0.1293    0.0000 C   0  0  0  0  0  0  0  0  0  0  0  0
    2.3645   -1.7793    0.0000 C   0  0  0  0  0  0  0  0  0  0  0  0
    5.1795    1.4482    0.0000 C   0  0  0  0  0  0  0  0  0  0  0  0
    1.6500   -0.5418    0.0000 C   0  0  0  0  0  0  0  0  0  0  0  0
    1.6500   -1.3668    0.0000 C   0  0  0  0  0  0  0  0  0  0  0  0
  1 13  1  0  0  0  0
  2 13  2  0  0  0  0
  3  9  1  0  0  0  0
  3 10  1  0  0  0  0
  8  4  1  1  0  0  0
  5  6  1  0  0  0  0
  5  7  1  0  0  0  0
  5 10  2  0  0  0  0
  6  8  1  0  0  0  0
  7  9  1  0  0  0  0
  7 11  2  0  0  0  0
  8 13  1  0  0  0  0
  9 12  2  0  0  0  0
 11 14  1  0  0  0  0
 12 15  1  0  0  0  0
 14 15  2  0  0  0  0
M  END
>  <DRUGBANK_ID>
DB00150

>  <DRUG_GROUPS>
approved; nutraceutical

>  <GENERIC_NAME>
L-Tryptophan

>  <SYNONYMS>
(-)-Tryptophan; (S)-a-Amino-1H-indole-3-propanoic acid; (S)-a-Amino-b-indolepropionic acid; (S)-a-Aminoindole-3-propionic acid; (S)-Tryptophan; 2-Amino-3-indolylpropanoic acid; 3-Indol-3-ylalanine; alpha-Amino-beta-(3-indolyl)-propionic acid; L-(-)-Tryptophan; l-a-Aminoindole-3-propionic acid; l-b-3-Indolylalanine; L-Tryptophane; Tryptophan; Tryptophane

>  <BRANDS>
Alti-Tryptophan; Lyphan

>  <CHEMICAL_FORMULA>
C11H12N2O2

>  <MOLECULAR_WEIGHT>
204.2252

>  <EXACT_MASS>
204.089877638

>  <IUPAC_NAME>
(2S)-2-amino-3-(1H-indol-3-yl)propanoic acid

>  <INCHI_IDENTIFIER>
InChI=1S/C11H12N2O2/c12-9(11(14)15)5-7-6-13-10-4-2-1-3-8(7)10/h1-4,6,9,13H,5,12H2,(H,14,15)/t9-/m0/s1

>  <INCHI_KEY>
InChIKey=QIVBCDIJIAJPQS-VIFPVBQESA-N

>  <SMILES>
N[C@@H](CC1=CNC2=CC=CC=C12)C(O)=O

>  <JCHEM_ACCEPTOR_COUNT>
3

>  <JCHEM_DONOR_COUNT>
3

>  <JCHEM_ACIDIC_PKA>
2.54

>  <JCHEM_BASIC_PKA>
9.4

>  <JCHEM_PHYSIOLOGICAL_CHARGE>
0

>  <ALOGPS_LOGP>
-1.1

>  <JCHEM_LOGP>
-1.1

>  <ALOGPS_LOGS>
-2.2

>  <JCHEM_POLARIZABILITY>
21.05

>  <JCHEM_POLAR_SURFACE_AREA>
79.11

>  <JCHEM_REFRACTIVITY>
56.2

>  <JCHEM_ROTATABLE_BOND_COUNT>
3

>  <ALOGPS_SOLUBILITY>
1.36e+00 g/l

$$$$
151
  Mrv0541 02231214282D          

  7  6  0  0  1  0            999 V2000
    2.0930   -0.9818    0.0000 S   0  0  0  0  0  0  0  0  0  0  0  0
    4.2365    0.2558    0.0000 O   0  0  0  0  0  0  0  0  0  0  0  0
    3.5220    1.4933    0.0000 O   0  0  0  0  0  0  0  0  0  0  0  0
    2.0930    0.6683    0.0000 N   0  0  0  0  0  0  0  0  0  0  0  0
    2.8075    0.2558    0.0000 C   0  0  1  0  0  0  0  0  0  0  0  0
    2.8075   -0.5693    0.0000 C   0  0  0  0  0  0  0  0  0  0  0  0
    3.5220    0.6683    0.0000 C   0  0  0  0  0  0  0  0  0  0  0  0
  1  6  1  0  0  0  0
  2  7  1  0  0  0  0
  3  7  2  0  0  0  0
  5  4  1  6  0  0  0
  5  6  1  0  0  0  0
  5  7  1  0  0  0  0
M  END
>  <DRUGBANK_ID>
DB00151

>  <DRUG_GROUPS>
approved; nutraceutical

>  <GENERIC_NAME>
L-Cysteine

>  <SYNONYMS>
(R)-2-Amino-3-mercaptopropanoic acid; (R)-Cysteine; 2-Amino-3-mercaptopropionic acid; 3-mercapto-L-Alanine; b-Mercaptoalanine; carbocysteine; Cys; Cystein; Half-cystine; L-(+)-Cysteine; L-2-Amino-3-mercaptopropionic acid; L-Cys; Thioserine

>  <CHEMICAL_FORMULA>
C3H7NO2S

>  <MOLECULAR_WEIGHT>
121.158

>  <EXACT_MASS>
121.019749163

>  <IUPAC_NAME>
(2R)-2-amino-3-sulfanylpropanoic acid

>  <INCHI_IDENTIFIER>
InChI=1S/C3H7NO2S/c4-2(1-7)3(5)6/h2,7H,1,4H2,(H,5,6)/t2-/m0/s1

>  <INCHI_KEY>
InChIKey=XUJNEKJLAYXESH-REOHCLBHSA-N

>  <SMILES>
N[C@@H](CS)C(O)=O

>  <JCHEM_ACCEPTOR_COUNT>
3

>  <JCHEM_DONOR_COUNT>
3

>  <JCHEM_ACIDIC_PKA>
2.35

>  <JCHEM_BASIC_PKA>
9.05

>  <JCHEM_PHYSIOLOGICAL_CHARGE>
0

>  <ALOGPS_LOGP>
-2.6

>  <JCHEM_LOGP>
-2.8

>  <ALOGPS_LOGS>
-0.72

>  <JCHEM_POLARIZABILITY>
11.46

>  <JCHEM_POLAR_SURFACE_AREA>
63.32

>  <JCHEM_REFRACTIVITY>
28.22

>  <JCHEM_ROTATABLE_BOND_COUNT>
2

>  <ALOGPS_SOLUBILITY>
2.31e+01 g/l

$$$$
152
  Mrv0541 02231214282D          

 18 19  0  0  0  0            999 V2000
    1.9050    0.8501    0.0000 S   0  0  0  0  0  0  0  0  0  0  0  0
    3.3643    2.9387    0.0000 O   0  0  0  0  0  0  0  0  0  0  0  0
    2.3175   -0.4194    0.0000 N   0  3  0  0  0  0  0  0  0  0  0  0
    3.7465   -2.8945    0.0000 N   0  0  0  0  0  0  0  0  0  0  0  0
    4.4610   -1.6570    0.0000 N   0  0  0  0  0  0  0  0  0  0  0  0
    2.3175   -2.8945    0.0000 N   0  0  0  0  0  0  0  0  0  0  0  0
    2.9849    0.0655    0.0000 C   0  0  0  0  0  0  0  0  0  0  0  0
    2.3175   -1.2445    0.0000 C   0  0  0  0  0  0  0  0  0  0  0  0
    2.7300    0.8501    0.0000 C   0  0  0  0  0  0  0  0  0  0  0  0
    3.2149    1.5175    0.0000 C   0  0  0  0  0  0  0  0  0  0  0  0
    3.0319   -1.6570    0.0000 C   0  0  0  0  0  0  0  0  0  0  0  0
    1.6500    0.0655    0.0000 C   0  0  0  0  0  0  0  0  0  0  0  0
    3.7696   -0.1894    0.0000 C   0  0  0  0  0  0  0  0  0  0  0  0
    2.8794    2.2713    0.0000 C   0  0  0  0  0  0  0  0  0  0  0  0
    3.0319   -2.4820    0.0000 C   0  0  0  0  0  0  0  0  0  0  0  0
    3.7465   -1.2445    0.0000 C   0  0  0  0  0  0  0  0  0  0  0  0
    4.4610   -2.4820    0.0000 C   0  0  0  0  0  0  0  0  0  0  0  0
    5.1754   -2.8945    0.0000 C   0  0  0  0  0  0  0  0  0  0  0  0
  1  9  1  0  0  0  0
  1 12  1  0  0  0  0
  2 14  1  0  0  0  0
  3  7  1  0  0  0  0
  3  8  1  0  0  0  0
  3 12  2  0  0  0  0
  4 15  2  0  0  0  0
  4 17  1  0  0  0  0
  5 16  1  0  0  0  0
  5 17  2  0  0  0  0
  6 15  1  0  0  0  0
  7  9  2  0  0  0  0
  7 13  1  0  0  0  0
  8 11  1  0  0  0  0
  9 10  1  0  0  0  0
 10 14  1  0  0  0  0
 11 15  1  0  0  0  0
 11 16  2  0  0  0  0
 17 18  1  0  0  0  0
M  CHG  1   3   1
M  END
>  <DRUGBANK_ID>
DB00152

>  <DRUG_GROUPS>
approved; nutraceutical

>  <GENERIC_NAME>
Thiamine

>  <SYNONYMS>
Thiadoxine; Thiamin; Thiamine Hcl; thiamine(1+); Vitamin B1

>  <BRANDS>
Aneurin; Antiberiberi Factor; Betalin S; Betaxin; Bewon; Biamine; Vitaneuron

>  <CHEMICAL_FORMULA>
C12H17N4OS

>  <MOLECULAR_WEIGHT>
265.355

>  <EXACT_MASS>
265.112306876

>  <IUPAC_NAME>
3-[(4-amino-2-methylpyrimidin-5-yl)methyl]-5-(2-hydroxyethyl)-4-methyl-1,3-thiazol-3-ium

>  <INCHI_IDENTIFIER>
InChI=1S/C12H17N4OS/c1-8-11(3-4-17)18-7-16(8)6-10-5-14-9(2)15-12(10)13/h5,7,17H,3-4,6H2,1-2H3,(H2,13,14,15)/q+1

>  <INCHI_KEY>
InChIKey=JZRWCGZRTZMZEH-UHFFFAOYSA-N

>  <SMILES>
CC1=C(CCO)SC=[N+]1CC1=CN=C(C)N=C1N

>  <JCHEM_ACCEPTOR_COUNT>
4

>  <JCHEM_DONOR_COUNT>
2

>  <JCHEM_ACIDIC_PKA>
15.5

>  <JCHEM_BASIC_PKA>
5.54

>  <JCHEM_PHYSIOLOGICAL_CHARGE>
1

>  <ALOGPS_LOGP>
-2.1

>  <JCHEM_LOGP>
-3.1

>  <ALOGPS_LOGS>
-4.3

>  <JCHEM_POLARIZABILITY>
28.14

>  <JCHEM_POLAR_SURFACE_AREA>
75.91

>  <JCHEM_REFRACTIVITY>
73.4

>  <JCHEM_ROTATABLE_BOND_COUNT>
4

>  <ALOGPS_SOLUBILITY>
1.53e-02 g/l

$$$$
153
  Mrv0541 02231214282D          

 31 33  0  0  1  0            999 V2000
    1.6500   -3.9985    0.0000 O   0  0  0  0  0  0  0  0  0  0  0  0
    4.5080    0.9517    0.0000 C   0  0  2  0  0  0  0  0  0  0  0  0
    5.2886    1.2030    0.0000 C   0  0  2  0  0  0  0  0  0  0  0  0
    4.5080    0.1266    0.0000 C   0  0  1  0  0  0  0  0  0  0  0  0
    5.7701    0.5391    0.0000 C   0  0  0  0  0  0  0  0  0  0  0  0
    5.2886   -0.1247    0.0000 C   0  0  0  0  0  0  0  0  0  0  0  0
    3.7935    1.3642    0.0000 C   0  0  0  0  0  0  0  0  0  0  0  0
    5.5449    1.9872    0.0000 C   0  0  2  0  0  0  0  0  0  0  0  0
    3.7935   -0.2859    0.0000 C   0  0  0  0  0  0  0  0  0  0  0  0
    4.5080    1.7767    0.0000 C   0  0  0  0  0  0  0  0  0  0  0  0
    3.0791    0.9517    0.0000 C   0  0  0  0  0  0  0  0  0  0  0  0
    3.0791    0.1266    0.0000 C   0  0  0  0  0  0  0  0  0  0  0  0
    4.9939    2.6013    0.0000 C   0  0  0  0  0  0  0  0  0  0  0  0
    6.3522    2.1574    0.0000 C   0  0  0  0  0  0  0  0  0  0  0  0
    3.7935   -1.1109    0.0000 C   0  0  0  0  0  0  0  0  0  0  0  0
    6.6086    2.9416    0.0000 C   0  0  0  0  0  0  0  0  0  0  0  0
    3.0791   -1.5234    0.0000 C   0  0  0  0  0  0  0  0  0  0  0  0
    7.4158    3.1117    0.0000 C   0  0  1  0  0  0  0  0  0  0  0  0
    3.0791   -2.3484    0.0000 C   0  0  0  0  0  0  0  0  0  0  0  0
    7.6721    3.8959    0.0000 C   0  0  0  0  0  0  0  0  0  0  0  0
    2.3645   -2.7609    0.0000 C   0  0  0  0  0  0  0  0  0  0  0  0
    7.9668    2.4977    0.0000 C   0  0  0  0  0  0  0  0  0  0  0  0
    3.7935   -2.7609    0.0000 C   0  0  0  0  0  0  0  0  0  0  0  0
    2.3645   -3.5859    0.0000 C   0  0  2  0  0  0  0  0  0  0  0  0
    3.7935   -3.5859    0.0000 C   0  0  0  0  0  0  0  0  0  0  0  0
    3.0791   -3.9985    0.0000 C   0  0  0  0  0  0  0  0  0  0  0  0
    7.1211    4.5100    0.0000 C   0  0  0  0  0  0  0  0  0  0  0  0
    8.4794    4.0660    0.0000 C   0  0  0  0  0  0  0  0  0  0  0  0
    4.5080   -2.3484    0.0000 C   0  0  0  0  0  0  0  0  0  0  0  0
    5.9406    1.3054    0.0000 H   0  0  0  0  0  0  0  0  0  0  0  0
    4.5779   -0.5297    0.0000 H   0  0  0  0  0  0  0  0  0  0  0  0
 24  1  1  6  0  0  0
  2  3  1  0  0  0  0
  2  4  1  0  0  0  0
  2  7  1  0  0  0  0
  2 10  1  1  0  0  0
  3  5  1  0  0  0  0
  3  8  1  0  0  0  0
  3 30  1  6  0  0  0
  4  6  1  0  0  0  0
  4  9  1  0  0  0  0
  4 31  1  6  0  0  0
  5  6  1  0  0  0  0
  7 11  1  0  0  0  0
  8 13  1  6  0  0  0
  8 14  1  0  0  0  0
  9 12  1  0  0  0  0
  9 15  2  0  0  0  0
 11 12  1  0  0  0  0
 14 16  2  0  0  0  0
 15 17  1  0  0  0  0
 16 18  1  0  0  0  0
 17 19  2  0  0  0  0
 18 20  1  0  0  0  0
 18 22  1  1  0  0  0
 19 21  1  0  0  0  0
 19 23  1  0  0  0  0
 20 27  1  0  0  0  0
 20 28  1  0  0  0  0
 21 24  1  0  0  0  0
 23 25  1  0  0  0  0
 23 29  2  0  0  0  0
 24 26  1  0  0  0  0
 25 26  1  0  0  0  0
M  END
>  <DRUGBANK_ID>
DB00153

>  <DRUG_GROUPS>
approved; nutraceutical

>  <GENERIC_NAME>
Ergocalciferol

>  <SYNONYMS>
Synthetic Vitamin D; Vitamin D2

>  <BRANDS>
Buco-D; Calciferol; Calciferon 2; Condacaps; Condocaps; Condol; Crtron; Crystallina; D-Arthin; D-Tracetten; Daral; Davitamon D; Davitin; De-Rat Concentrate; Decaps; Dee-Osterol; Dee-Ron; Dee-Ronal; Dee-Roual; Deltalin; Deratol; Detalup; Diactol; Divit Urto; Drisdol; Ercalciol; Ergorone; Ergosterol Activated; Ergosterol, Irradiated; Ertron; Fortodyl; Geltabs; Hi-Deratol; Infron; Metadee; Mulsiferol; Mykostin; Novovitamin-D; Oleovitamin D; Oleovitamin D, Synthetic; Oleovitamin D2; Ostelin; Radiostol; Radstein; Radsterin; Rodine C; Shock-Ferol; Shock-Ferol Sterogyl; Sterogyl; Uvesterol-D; Vio-D; Viostdrol; Viosterol; Viosterol in Oil; Vitavel-D

>  <CHEMICAL_FORMULA>
C28H44O

>  <MOLECULAR_WEIGHT>
396.6484

>  <EXACT_MASS>
396.33921603

>  <IUPAC_NAME>
(1S,3Z)-3-{2-[(1R,3aS,4E,7aR)-1-[(2R,3E,5R)-5,6-dimethylhept-3-en-2-yl]-7a-methyl-octahydro-1H-inden-4-ylidene]ethylidene}-4-methylidenecyclohexan-1-ol

>  <INCHI_IDENTIFIER>
InChI=1S/C28H44O/c1-19(2)20(3)9-10-22(5)26-15-16-27-23(8-7-17-28(26,27)6)12-13-24-18-25(29)14-11-21(24)4/h9-10,12-13,19-20,22,25-27,29H,4,7-8,11,14-18H2,1-3,5-6H3/b10-9+,23-12+,24-13-/t20-,22+,25-,26+,27-,28+/m0/s1

>  <INCHI_KEY>
InChIKey=MECHNRXZTMCUDQ-RKHKHRCZSA-N

>  <SMILES>
CC(C)[C@@H](C)\C=C\[C@@H](C)[C@@]1([H])CC[C@@]2([H])\C(CCC[C@]12C)=C\C=C1\C[C@@H](O)CCC1=C

>  <JCHEM_ACCEPTOR_COUNT>
1

>  <JCHEM_DONOR_COUNT>
1

>  <JCHEM_ACIDIC_PKA>
18.38

>  <JCHEM_BASIC_PKA>
-1.3

>  <JCHEM_PHYSIOLOGICAL_CHARGE>
0

>  <ALOGPS_LOGP>
7.59

>  <JCHEM_LOGP>
7.05

>  <ALOGPS_LOGS>
-6

>  <JCHEM_POLARIZABILITY>
50.73

>  <JCHEM_POLAR_SURFACE_AREA>
20.23

>  <JCHEM_REFRACTIVITY>
128.89

>  <JCHEM_ROTATABLE_BOND_COUNT>
5

>  <ALOGPS_SOLUBILITY>
4.33e-04 g/l

$$$$
5280581
  Mrv0541 02231214292D          

 22 21  0  0  0  0            999 V2000
    1.6500    2.6813    0.0000 O   0  0  0  0  0  0  0  0  0  0  0  0
    3.0790    2.6813    0.0000 O   0  0  0  0  0  0  0  0  0  0  0  0
    3.7935   -0.2063    0.0000 C   0  0  0  0  0  0  0  0  0  0  0  0
    3.0790    0.2063    0.0000 C   0  0  0  0  0  0  0  0  0  0  0  0
    3.7935   -1.0313    0.0000 C   0  0  0  0  0  0  0  0  0  0  0  0
    3.0790    1.0313    0.0000 C   0  0  0  0  0  0  0  0  0  0  0  0
    4.5080   -1.4438    0.0000 C   0  0  0  0  0  0  0  0  0  0  0  0
    2.3645    1.4438    0.0000 C   0  0  0  0  0  0  0  0  0  0  0  0
    7.3659    1.0313    0.0000 C   0  0  0  0  0  0  0  0  0  0  0  0
    6.6515    1.4438    0.0000 C   0  0  0  0  0  0  0  0  0  0  0  0
    7.3659    0.2063    0.0000 C   0  0  0  0  0  0  0  0  0  0  0  0
    6.6515    2.2688    0.0000 C   0  0  0  0  0  0  0  0  0  0  0  0
    4.5080   -2.2688    0.0000 C   0  0  0  0  0  0  0  0  0  0  0  0
    5.2224   -2.6813    0.0000 C   0  0  0  0  0  0  0  0  0  0  0  0
    8.0804   -0.2063    0.0000 C   0  0  0  0  0  0  0  0  0  0  0  0
    2.3645    2.2688    0.0000 C   0  0  0  0  0  0  0  0  0  0  0  0
    5.9370    2.6813    0.0000 C   0  0  0  0  0  0  0  0  0  0  0  0
    5.9370   -2.2688    0.0000 C   0  0  0  0  0  0  0  0  0  0  0  0
    8.0804   -1.0313    0.0000 C   0  0  0  0  0  0  0  0  0  0  0  0
    7.3659   -1.4438    0.0000 C   0  0  0  0  0  0  0  0  0  0  0  0
    6.6515   -2.6813    0.0000 C   0  0  0  0  0  0  0  0  0  0  0  0
    7.3659   -2.2688    0.0000 C   0  0  0  0  0  0  0  0  0  0  0  0
  1 16  1  0  0  0  0
  2 16  2  0  0  0  0
  3  4  1  0  0  0  0
  3  5  1  0  0  0  0
  4  6  1  0  0  0  0
  5  7  1  0  0  0  0
  6  8  1  0  0  0  0
  7 13  1  0  0  0  0
  8 16  1  0  0  0  0
  9 10  1  0  0  0  0
  9 11  1  0  0  0  0
 10 12  1  0  0  0  0
 11 15  1  0  0  0  0
 12 17  1  0  0  0  0
 13 14  2  0  0  0  0
 14 18  1  0  0  0  0
 15 19  2  0  0  0  0
 18 21  1  0  0  0  0
 19 20  1  0  0  0  0
 20 22  1  0  0  0  0
 21 22  2  0  0  0  0
M  END
>  <DRUGBANK_ID>
DB00154

>  <DRUG_GROUPS>
approved; nutraceutical

>  <GENERIC_NAME>
gamma-Homolinolenic acid

>  <SYNONYMS>
(Z,Z,Z)-8,11,14-Eicosatrienoic acid; 8,11,14-Eicosatrienoic Acid; cis-8,11,14-Eicosatrienoic acid; DGLA; Dihomo-gamma-linolenic acid; Homo-gamma-linolenic acid

>  <BRANDS>
Star GLA (GNC); Tona-lean 1000 CLA (Action Labs)

>  <CHEMICAL_FORMULA>
C20H34O2

>  <MOLECULAR_WEIGHT>
306.4828

>  <EXACT_MASS>
306.255880332

>  <IUPAC_NAME>
(8Z,11Z,14Z)-icosa-8,11,14-trienoic acid

>  <INCHI_IDENTIFIER>
InChI=1S/C20H34O2/c1-2-3-4-5-6-7-8-9-10-11-12-13-14-15-16-17-18-19-20(21)22/h6-7,9-10,12-13H,2-5,8,11,14-19H2,1H3,(H,21,22)/b7-6-,10-9-,13-12-

>  <INCHI_KEY>
InChIKey=HOBAELRKJCKHQD-QNEBEIHSSA-N

>  <SMILES>
CCCCC\C=C/C\C=C/C\C=C/CCCCCCC(O)=O

>  <JCHEM_ACCEPTOR_COUNT>
2

>  <JCHEM_DONOR_COUNT>
1

>  <JCHEM_ACIDIC_PKA>
4.89

>  <JCHEM_PHYSIOLOGICAL_CHARGE>
-1

>  <ALOGPS_LOGP>
7.24

>  <JCHEM_LOGP>
6.95

>  <ALOGPS_LOGS>
-6.6

>  <JCHEM_POLARIZABILITY>
39.01

>  <JCHEM_POLAR_SURFACE_AREA>
37.3

>  <JCHEM_REFRACTIVITY>
98.84

>  <JCHEM_ROTATABLE_BOND_COUNT>
15

>  <ALOGPS_SOLUBILITY>
7.71e-05 g/l

$$$$
155
  Mrv0541 02231214292D          

 12 11  0  0  1  0            999 V2000
    5.6655    1.4933    0.0000 O   0  0  0  0  0  0  0  0  0  0  0  0
    4.9509    2.7308    0.0000 O   0  0  0  0  0  0  0  0  0  0  0  0
    3.5220   -2.2193    0.0000 O   0  0  0  0  0  0  0  0  0  0  0  0
    2.8075   -0.9818    0.0000 N   0  0  0  0  0  0  0  0  0  0  0  0
    3.5220    1.9058    0.0000 N   0  0  0  0  0  0  0  0  0  0  0  0
    2.0930   -2.2193    0.0000 N   0  0  0  0  0  0  0  0  0  0  0  0
    4.2365    0.6683    0.0000 C   0  0  0  0  0  0  0  0  0  0  0  0
    3.5220    0.2558    0.0000 C   0  0  0  0  0  0  0  0  0  0  0  0
    4.2365    1.4933    0.0000 C   0  0  1  0  0  0  0  0  0  0  0  0
    3.5220   -0.5693    0.0000 C   0  0  0  0  0  0  0  0  0  0  0  0
    4.9509    1.9058    0.0000 C   0  0  0  0  0  0  0  0  0  0  0  0
    2.8075   -1.8068    0.0000 C   0  0  0  0  0  0  0  0  0  0  0  0
  1 11  1  0  0  0  0
  2 11  2  0  0  0  0
  3 12  2  0  0  0  0
  4 10  1  0  0  0  0
  4 12  1  0  0  0  0
  9  5  1  6  0  0  0
  6 12  1  0  0  0  0
  7  8  1  0  0  0  0
  7  9  1  0  0  0  0
  8 10  1  0  0  0  0
  9 11  1  0  0  0  0
M  END
>  <DRUGBANK_ID>
DB00155

>  <DRUG_GROUPS>
approved; nutraceutical

>  <GENERIC_NAME>
L-Citrulline

>  <SYNONYMS>
2-Amino-5-uredovaleric acid; Citrulline; delta-Ureidonorvaline; N5-(Aminocarbonyl)ornithine; N5-Carbamoyl-L-ornithine; N5-carbamoylornithine; N5-carbamylornithine; Sitrulline

>  <CHEMICAL_FORMULA>
C6H13N3O3

>  <MOLECULAR_WEIGHT>
175.1857

>  <EXACT_MASS>
175.095691297

>  <IUPAC_NAME>
(2S)-2-amino-5-(carbamoylamino)pentanoic acid

>  <INCHI_IDENTIFIER>
InChI=1S/C6H13N3O3/c7-4(5(10)11)2-1-3-9-6(8)12/h4H,1-3,7H2,(H,10,11)(H3,8,9,12)/t4-/m0/s1

>  <INCHI_KEY>
InChIKey=RHGKLRLOHDJJDR-BYPYZUCNSA-N

>  <SMILES>
N[C@@H](CCCNC(N)=O)C(O)=O

>  <JCHEM_ACCEPTOR_COUNT>
4

>  <JCHEM_DONOR_COUNT>
4

>  <JCHEM_ACIDIC_PKA>
2.27

>  <JCHEM_BASIC_PKA>
9.23

>  <JCHEM_PHYSIOLOGICAL_CHARGE>
0

>  <ALOGPS_LOGP>
-3.3

>  <JCHEM_LOGP>
-3.9

>  <ALOGPS_LOGS>
-0.9

>  <JCHEM_POLARIZABILITY>
17.35

>  <JCHEM_POLAR_SURFACE_AREA>
118.44

>  <JCHEM_REFRACTIVITY>
41.33

>  <JCHEM_ROTATABLE_BOND_COUNT>
5

>  <ALOGPS_SOLUBILITY>
2.18e+01 g/l

$$$$
156
  Mrv0541 02231214292D          

  8  7  0  0  1  0            999 V2000
    4.9509   -0.0784    0.0000 O   0  0  0  0  0  0  0  0  0  0  0  0
    2.0930   -0.0784    0.0000 O   0  0  0  0  0  0  0  0  0  0  0  0
    2.8075    1.1592    0.0000 O   0  0  0  0  0  0  0  0  0  0  0  0
    3.5220   -0.9034    0.0000 N   0  0  0  0  0  0  0  0  0  0  0  0
    4.2365    0.3341    0.0000 C   0  0  1  0  0  0  0  0  0  0  0  0
    3.5220   -0.0784    0.0000 C   0  0  1  0  0  0  0  0  0  0  0  0
    4.2365    1.1592    0.0000 C   0  0  0  0  0  0  0  0  0  0  0  0
    2.8075    0.3341    0.0000 C   0  0  0  0  0  0  0  0  0  0  0  0
  5  1  1  1  0  0  0
  2  8  1  0  0  0  0
  3  8  2  0  0  0  0
  6  4  1  6  0  0  0
  5  6  1  0  0  0  0
  5  7  1  0  0  0  0
  6  8  1  0  0  0  0
M  END
>  <DRUGBANK_ID>
DB00156

>  <DRUG_GROUPS>
approved; nutraceutical

>  <GENERIC_NAME>
L-Threonine

>  <SYNONYMS>
(S)-Threonine; [R-(R*,S*)]-2-Amino-3-hydroxybutanoic acid; 2-Amino-3-hydroxybutyric acid; L-(-)-Threonine; Threonin; Threonine

>  <CHEMICAL_FORMULA>
C4H9NO3

>  <MOLECULAR_WEIGHT>
119.1192

>  <EXACT_MASS>
119.058243159

>  <IUPAC_NAME>
(2S,3R)-2-amino-3-hydroxybutanoic acid

>  <INCHI_IDENTIFIER>
InChI=1S/C4H9NO3/c1-2(6)3(5)4(7)8/h2-3,6H,5H2,1H3,(H,7,8)/t2-,3+/m1/s1

>  <INCHI_KEY>
InChIKey=AYFVYJQAPQTCCC-GBXIJSLDSA-N

>  <SMILES>
C[C@@H](O)[C@H](N)C(O)=O

>  <JCHEM_ACCEPTOR_COUNT>
4

>  <JCHEM_DONOR_COUNT>
3

>  <JCHEM_ACIDIC_PKA>
2.21

>  <JCHEM_BASIC_PKA>
9

>  <JCHEM_PHYSIOLOGICAL_CHARGE>
0

>  <ALOGPS_LOGP>
-3

>  <JCHEM_LOGP>
-3.5

>  <ALOGPS_LOGS>
0.6

>  <JCHEM_POLARIZABILITY>
11.12

>  <JCHEM_POLAR_SURFACE_AREA>
83.55

>  <JCHEM_REFRACTIVITY>
26.46

>  <JCHEM_ROTATABLE_BOND_COUNT>
2

>  <ALOGPS_SOLUBILITY>
4.77e+02 g/l

$$$$
157
  Mrv0541 02231214292D          

 44 48  0  0  1  0            999 V2000
    6.9922    1.8744    0.0000 P   0  0  1  0  0  0  0  0  0  0  0  0
    8.4135    2.0213    0.0000 P   0  0  2  0  0  0  0  0  0  0  0  0
    4.9010    0.4187    0.0000 O   0  0  0  0  0  0  0  0  0  0  0  0
   11.3032    2.2426    0.0000 O   0  0  0  0  0  0  0  0  0  0  0  0
    3.8647    2.2851    0.0000 O   0  0  0  0  0  0  0  0  0  0  0  0
    2.8071    0.8348    0.0000 O   0  0  0  0  0  0  0  0  0  0  0  0
   10.2050    0.4119    0.0000 O   0  0  0  0  0  0  0  0  0  0  0  0
   11.9898    0.2212    0.0000 O   0  0  0  0  0  0  0  0  0  0  0  0
    6.3238    1.3906    0.0000 O   0  0  0  0  0  0  0  0  0  0  0  0
    9.1667    1.6844    0.0000 O   0  0  0  0  0  0  0  0  0  0  0  0
    7.6604    2.3582    0.0000 O   0  0  0  0  0  0  0  0  0  0  0  0
    7.4759    1.2061    0.0000 O   0  0  0  0  0  0  0  0  0  0  0  0
    8.7504    2.7744    0.0000 O   0  0  0  0  0  0  0  0  0  0  0  0
    6.5084    2.5427    0.0000 O   0  0  0  0  0  0  0  0  0  0  0  0
    8.0766    1.2682    0.0000 O   0  0  0  0  0  0  0  0  0  0  0  0
   14.3756    0.0175    0.0000 O   0  0  0  0  0  0  0  0  0  0  0  0
    3.8597   -0.6191    0.0000 N   0  0  0  0  0  0  0  0  0  0  0  0
   12.7226    1.8597    0.0000 N   0  0  0  0  0  0  0  0  0  0  0  0
    3.8597   -1.9469    0.0000 N   0  0  0  0  0  0  0  0  0  0  0  0
    2.3645   -0.4580    0.0000 N   0  0  0  0  0  0  0  0  0  0  0  0
    1.6500   -1.6955    0.0000 N   0  0  0  0  0  0  0  0  0  0  0  0
    2.3645   -2.9330    0.0000 N   0  0  0  0  0  0  0  0  0  0  0  0
   15.4392    0.9718    0.0000 N   0  0  0  0  0  0  0  0  0  0  0  0
    4.1182    1.5000    0.0000 C   0  0  1  0  0  0  0  0  0  0  0  0
    3.6321    0.8334    0.0000 C   0  0  2  0  0  0  0  0  0  0  0  0
    4.9025    1.2437    0.0000 C   0  0  1  0  0  0  0  0  0  0  0  0
    4.1159    0.1652    0.0000 C   0  0  1  0  0  0  0  0  0  0  0  0
   10.7582    1.0241    0.0000 C   0  0  1  0  0  0  0  0  0  0  0  0
   11.5785    0.9364    0.0000 C   0  0  2  0  0  0  0  0  0  0  0  0
   10.5880    1.8314    0.0000 C   0  0  1  0  0  0  0  0  0  0  0  0
   11.9154    1.6895    0.0000 C   0  0  1  0  0  0  0  0  0  0  0  0
    5.5707    1.7275    0.0000 C   0  0  0  0  0  0  0  0  0  0  0  0
    9.8349    2.1682    0.0000 C   0  0  0  0  0  0  0  0  0  0  0  0
    3.0790   -0.8705    0.0000 C   0  0  0  0  0  0  0  0  0  0  0  0
   13.2737    1.2456    0.0000 C   0  0  0  0  0  0  0  0  0  0  0  0
    4.3411   -1.2830    0.0000 C   0  0  0  0  0  0  0  0  0  0  0  0
   12.9790    2.6438    0.0000 C   0  0  0  0  0  0  0  0  0  0  0  0
    3.0790   -1.6955    0.0000 C   0  0  0  0  0  0  0  0  0  0  0  0
   14.0809    1.4157    0.0000 C   0  0  0  0  0  0  0  0  0  0  0  0
   14.3372    2.1999    0.0000 C   0  0  0  0  0  0  0  0  0  0  0  0
   13.7862    2.8140    0.0000 C   0  0  0  0  0  0  0  0  0  0  0  0
    2.3645   -2.1080    0.0000 C   0  0  0  0  0  0  0  0  0  0  0  0
   14.6319    0.8017    0.0000 C   0  0  0  0  0  0  0  0  0  0  0  0
    1.6500   -0.8705    0.0000 C   0  0  0  0  0  0  0  0  0  0  0  0
  1  9  1  0  0  0  0
  1 11  1  0  0  0  0
  1 12  1  6  0  0  0
  1 14  2  0  0  0  0
  2 10  1  0  0  0  0
  2 11  1  0  0  0  0
  2 13  1  1  0  0  0
  2 15  2  0  0  0  0
  3 26  1  0  0  0  0
  3 27  1  0  0  0  0
  4 30  1  0  0  0  0
  4 31  1  0  0  0  0
 24  5  1  6  0  0  0
 25  6  1  6  0  0  0
 28  7  1  6  0  0  0
 29  8  1  6  0  0  0
  9 32  1  0  0  0  0
 10 33  1  0  0  0  0
 16 43  2  0  0  0  0
 27 17  1  1  0  0  0
 17 34  1  0  0  0  0
 17 36  1  0  0  0  0
 31 18  1  1  0  0  0
 18 35  1  0  0  0  0
 18 37  1  0  0  0  0
 19 36  2  0  0  0  0
 19 38  1  0  0  0  0
 20 34  2  0  0  0  0
 20 44  1  0  0  0  0
 21 42  1  0  0  0  0
 21 44  2  0  0  0  0
 22 42  1  0  0  0  0
 23 43  1  0  0  0  0
 24 25  1  0  0  0  0
 24 26  1  0  0  0  0
 25 27  1  0  0  0  0
 26 32  1  1  0  0  0
 28 29  1  0  0  0  0
 28 30  1  0  0  0  0
 29 31  1  0  0  0  0
 30 33  1  1  0  0  0
 34 38  1  0  0  0  0
 35 39  2  0  0  0  0
 37 41  2  0  0  0  0
 38 42  2  0  0  0  0
 39 40  1  0  0  0  0
 39 43  1  0  0  0  0
 40 41  1  0  0  0  0
M  END
>  <DRUGBANK_ID>
DB00157

>  <DRUG_GROUPS>
approved; nutraceutical

>  <GENERIC_NAME>
NADH

>  <SYNONYMS>
beta-DPNH; beta-NADH; Coenzyme I, reduced; Cozymase I, reduced; dihydrodiphosphopyridine nucleotide; dihydronicotinamide adenine dinucleotide; Diphosphopyridine nucleotide; diphosphopyridine nucleotide reduced; DPN; DPN+; DPNH; NAD-reduced; NAD+; NADH+H+; NADH2; Nicotinamide adenine dinucleotide; nicotinamide adenine dinucleotide reduced; Nicotinaminde-Adenine-Dinucleotide

>  <BRANDS>
Nadide

>  <CHEMICAL_FORMULA>
C21H29N7O14P2

>  <MOLECULAR_WEIGHT>
665.441

>  <EXACT_MASS>
665.124771695

>  <IUPAC_NAME>
{[(2R,3S,4R,5R)-5-(6-amino-9H-purin-9-yl)-3,4-dihydroxyoxolan-2-yl]methoxy}[({[(2R,3S,4R,5R)-5-(3-carbamoyl-1,4-dihydropyridin-1-yl)-3,4-dihydroxyoxolan-2-yl]methoxy}(hydroxy)phosphoryl)oxy]phosphinic acid

>  <INCHI_IDENTIFIER>
InChI=1S/C21H29N7O14P2/c22-17-12-19(25-7-24-17)28(8-26-12)21-16(32)14(30)11(41-21)6-39-44(36,37)42-43(34,35)38-5-10-13(29)15(31)20(40-10)27-3-1-2-9(4-27)18(23)33/h1,3-4,7-8,10-11,13-16,20-21,29-32H,2,5-6H2,(H2,23,33)(H,34,35)(H,36,37)(H2,22,24,25)/t10-,11-,13-,14-,15-,16-,20-,21-/m1/s1

>  <INCHI_KEY>
InChIKey=BOPGDPNILDQYTO-NNYOXOHSSA-N

>  <SMILES>
NC(=O)C1=CN(C=CC1)[C@@H]1O[C@H](CO[P@](O)(=O)O[P@](O)(=O)OC[C@H]2O[C@H]([C@H](O)[C@@H]2O)N2C=NC3=C(N)N=CN=C23)[C@@H](O)[C@H]1O

>  <JCHEM_ACCEPTOR_COUNT>
16

>  <JCHEM_DONOR_COUNT>
8

>  <JCHEM_ACIDIC_PKA>
-7

>  <JCHEM_BASIC_PKA>
5

>  <JCHEM_PHYSIOLOGICAL_CHARGE>
-2

>  <ALOGPS_LOGP>
-1.4

>  <JCHEM_LOGP>
-6.5

>  <ALOGPS_LOGS>
-2.4

>  <JCHEM_POLARIZABILITY>
57.65

>  <JCHEM_POLAR_SURFACE_AREA>
317.62

>  <JCHEM_REFRACTIVITY>
143

>  <JCHEM_ROTATABLE_BOND_COUNT>
11

>  <ALOGPS_SOLUBILITY>
2.95e+00 g/l

$$$$
158
  Mrv0541 02231214292D          

 32 34  0  0  1  0            999 V2000
   12.8598    0.2286    0.0000 O   0  0  0  0  0  0  0  0  0  0  0  0
    9.9988    1.0426    0.0000 O   0  0  0  0  0  0  0  0  0  0  0  0
   12.1501   -1.0116    0.0000 O   0  0  0  0  0  0  0  0  0  0  0  0
   12.8502    2.7036    0.0000 O   0  0  0  0  0  0  0  0  0  0  0  0
   11.4213    2.6981    0.0000 O   0  0  0  0  0  0  0  0  0  0  0  0
    3.5220   -0.2286    0.0000 O   0  0  0  0  0  0  0  0  0  0  0  0
   10.7180   -0.1921    0.0000 N   0  0  0  0  0  0  0  0  0  0  0  0
    7.1504   -1.4434    0.0000 N   0  0  0  0  0  0  0  0  0  0  0  0
    4.9740   -1.0250    0.0000 N   0  0  0  0  0  0  0  0  0  0  0  0
    3.5220   -2.7036    0.0000 N   0  0  0  0  0  0  0  0  0  0  0  0
    4.9740   -2.7322    0.0000 N   0  0  0  0  0  0  0  0  0  0  0  0
    2.8075   -1.4661    0.0000 N   0  0  0  0  0  0  0  0  0  0  0  0
    2.0930   -2.7036    0.0000 N   0  0  0  0  0  0  0  0  0  0  0  0
   11.4309    0.2231    0.0000 C   0  0  1  0  0  0  0  0  0  0  0  0
   11.4277    1.0481    0.0000 C   0  0  0  0  0  0  0  0  0  0  0  0
   12.1406    1.4634    0.0000 C   0  0  0  0  0  0  0  0  0  0  0  0
   10.0019    0.2176    0.0000 C   0  0  0  0  0  0  0  0  0  0  0  0
    9.2890   -0.1977    0.0000 C   0  0  0  0  0  0  0  0  0  0  0  0
   12.1469   -0.1866    0.0000 C   0  0  0  0  0  0  0  0  0  0  0  0
    7.8633   -1.0282    0.0000 C   0  0  0  0  0  0  0  0  0  0  0  0
    6.4343   -1.0337    0.0000 C   0  0  0  0  0  0  0  0  0  0  0  0
    9.2922   -1.0227    0.0000 C   0  0  0  0  0  0  0  0  0  0  0  0
    8.5730    0.2121    0.0000 C   0  0  0  0  0  0  0  0  0  0  0  0
    8.5793   -1.4379    0.0000 C   0  0  0  0  0  0  0  0  0  0  0  0
    7.8601   -0.2032    0.0000 C   0  0  0  0  0  0  0  0  0  0  0  0
    5.7214   -1.4490    0.0000 C   0  0  0  0  0  0  0  0  0  0  0  0
   12.1374    2.2883    0.0000 C   0  0  0  0  0  0  0  0  0  0  0  0
    4.2364   -1.4661    0.0000 C   0  0  0  0  0  0  0  0  0  0  0  0
    4.2364   -2.2911    0.0000 C   0  0  0  0  0  0  0  0  0  0  0  0
    5.7214   -2.3083    0.0000 C   0  0  0  0  0  0  0  0  0  0  0  0
    3.5220   -1.0536    0.0000 C   0  0  0  0  0  0  0  0  0  0  0  0
    2.8075   -2.2911    0.0000 C   0  0  0  0  0  0  0  0  0  0  0  0
  1 19  1  0  0  0  0
  2 17  2  0  0  0  0
  3 19  2  0  0  0  0
  4 27  1  0  0  0  0
  5 27  2  0  0  0  0
  6 31  2  0  0  0  0
 14  7  1  1  0  0  0
  7 17  1  0  0  0  0
  8 20  1  0  0  0  0
  8 21  1  0  0  0  0
  9 26  1  0  0  0  0
  9 28  2  0  0  0  0
 10 29  1  0  0  0  0
 10 32  1  0  0  0  0
 11 29  2  0  0  0  0
 11 30  1  0  0  0  0
 12 31  1  0  0  0  0
 12 32  2  0  0  0  0
 13 32  1  0  0  0  0
 14 15  1  0  0  0  0
 14 19  1  0  0  0  0
 15 16  1  0  0  0  0
 16 27  1  0  0  0  0
 17 18  1  0  0  0  0
 18 22  2  0  0  0  0
 18 23  1  0  0  0  0
 20 24  2  0  0  0  0
 20 25  1  0  0  0  0
 21 26  1  0  0  0  0
 22 24  1  0  0  0  0
 23 25  2  0  0  0  0
 26 30  2  0  0  0  0
 28 29  1  0  0  0  0
 28 31  1  0  0  0  0
M  END
>  <DRUGBANK_ID>
DB00158

>  <DRUG_GROUPS>
approved; nutraceutical

>  <GENERIC_NAME>
Folic Acid

>  <SYNONYMS>
Folate; Pteroyl-L-glutamic acid; Pteroyl-L-monoglutamic acid; Pteroylglutamic acid; Pteroylmonoglutamic acid; Vitamin B9; Vitamin Bc; Vitamin Be; Vitamin M

>  <BRANDS>
Acifolic; Apo-Folic; Cytofol; Dosfolat B activ; Folacid; Folacin; Folbal; Folcidin; Foldine; Folettes; Foliamin; Folicet; Folipac; Folsan; Folsaure; Folsav; Folvite; Folvron; Incafolic; Millafol

>  <CHEMICAL_FORMULA>
C19H19N7O6

>  <MOLECULAR_WEIGHT>
441.3975

>  <EXACT_MASS>
441.139681375

>  <IUPAC_NAME>
(2S)-2-[(4-{[(2-amino-4-oxo-1,4-dihydropteridin-6-yl)methyl]amino}phenyl)formamido]pentanedioic acid

>  <INCHI_IDENTIFIER>
InChI=1S/C19H19N7O6/c20-19-25-15-14(17(30)26-19)23-11(8-22-15)7-21-10-3-1-9(2-4-10)16(29)24-12(18(31)32)5-6-13(27)28/h1-4,8,12,21H,5-7H2,(H,24,29)(H,27,28)(H,31,32)(H3,20,22,25,26,30)/t12-/m0/s1

>  <INCHI_KEY>
InChIKey=OVBPIULPVIDEAO-LBPRGKRZSA-N

>  <SMILES>
NC1=NC(=O)C2=NC(CNC3=CC=C(C=C3)C(=O)N[C@@H](CCC(O)=O)C(O)=O)=CN=C2N1

>  <JCHEM_ACCEPTOR_COUNT>
12

>  <JCHEM_DONOR_COUNT>
6

>  <JCHEM_ACIDIC_PKA>
3.37

>  <JCHEM_BASIC_PKA>
2.09

>  <JCHEM_PHYSIOLOGICAL_CHARGE>
-2

>  <ALOGPS_LOGP>
-0.04

>  <JCHEM_LOGP>
-0.68

>  <ALOGPS_LOGS>
-3.8

>  <JCHEM_POLARIZABILITY>
42.06

>  <JCHEM_POLAR_SURFACE_AREA>
208.99

>  <JCHEM_REFRACTIVITY>
111.01

>  <JCHEM_ROTATABLE_BOND_COUNT>
9

>  <ALOGPS_SOLUBILITY>
7.61e-02 g/l

$$$$
 
  Mrv0541 05281313312D          
 
 22 21  0  0  0  0            999 V2000
   12.8416  -10.9174    0.0000 C   0  0  0  0  0  0  0  0  0  0  0  0
   13.6781  -10.9174    0.0000 C   0  0  0  0  0  0  0  0  0  0  0  0
   12.0886  -11.3357    0.0000 C   0  0  0  0  0  0  0  0  0  0  0  0
   14.3892  -11.3357    0.0000 C   0  0  0  0  0  0  0  0  0  0  0  0
   11.3775  -10.9174    0.0000 C   0  0  0  0  0  0  0  0  0  0  0  0
   15.1003  -10.9174    0.0000 C   0  0  0  0  0  0  0  0  0  0  0  0
   10.5409  -10.9174    0.0000 C   0  0  0  0  0  0  0  0  0  0  0  0
   15.9369  -10.9174    0.0000 C   0  0  0  0  0  0  0  0  0  0  0  0
    9.8299  -11.3357    0.0000 C   0  0  0  0  0  0  0  0  0  0  0  0
   16.6898  -11.3357    0.0000 C   0  0  0  0  0  0  0  0  0  0  0  0
    9.0769  -10.9174    0.0000 C   0  0  0  0  0  0  0  0  0  0  0  0
   17.4009  -10.9174    0.0000 C   0  0  0  0  0  0  0  0  0  0  0  0
    8.3658  -11.3357    0.0000 C   0  0  0  0  0  0  0  0  0  0  0  0
   18.2375  -10.9174    0.0000 C   0  0  0  0  0  0  0  0  0  0  0  0
    7.6547  -10.9174    0.0000 C   0  0  0  0  0  0  0  0  0  0  0  0
   18.9486  -11.3357    0.0000 C   0  0  0  0  0  0  0  0  0  0  0  0
    6.9018  -11.3357    0.0000 O   0  0  0  0  0  0  0  0  0  0  0  0
    7.6547  -10.0808    0.0000 O   0  0  0  0  0  0  0  0  0  0  0  0
   19.7015  -10.9174    0.0000 C   0  0  0  0  0  0  0  0  0  0  0  0
   20.5381  -10.9174    0.0000 C   0  0  0  0  0  0  0  0  0  0  0  0
   21.2492  -11.3357    0.0000 C   0  0  0  0  0  0  0  0  0  0  0  0
   21.9603  -10.9174    0.0000 C   0  0  0  0  0  0  0  0  0  0  0  0
  1  2  2  0  0  0  0
  1  3  1  0  0  0  0
  2  4  1  0  0  0  0
  3  5  1  0  0  0  0
  4  6  1  0  0  0  0
  5  7  2  0  0  0  0
  6  8  2  0  0  0  0
  7  9  1  0  0  0  0
  8 10  1  0  0  0  0
  9 11  1  0  0  0  0
 10 12  1  0  0  0  0
 11 13  1  0  0  0  0
 12 14  2  0  0  0  0
 13 15  1  0  0  0  0
 14 16  1  0  0  0  0
 15 17  1  0  0  0  0
 15 18  2  0  0  0  0
 16 19  1  0  0  0  0
 19 20  2  0  0  0  0
 20 21  1  0  0  0  0
 21 22  1  0  0  0  0
M  END
>  <DRUGBANK_ID>
DB00159

>  <DRUG_GROUPS>
approved; nutraceutical

>  <GENERIC_NAME>
Icosapent

>  <SYNONYMS>
Eicosapentaenoic acid; EPA; Icosapentaenoic acid; Timnodonic acid

>  <CHEMICAL_FORMULA>
C20H30O2

>  <MOLECULAR_WEIGHT>
302.451

>  <EXACT_MASS>
302.224580204

>  <IUPAC_NAME>
(5Z,8Z,11Z,14Z,17Z)-icosa-5,8,11,14,17-pentaenoic acid

>  <INCHI_IDENTIFIER>
InChI=1/C20H30O2/c1-2-3-4-5-6-7-8-9-10-11-12-13-14-15-16-17-18-19-20(21)22/h3-4,6-7,9-10,12-13,15-16H,2,5,8,11,14,17-19H2,1H3,(H,21,22)/b4-3-,7-6-,10-9-,13-12-,16-15-

>  <INCHI_KEY>
InChIKey=JAZBEHYOTPTENJ-JLNKQSITNA-N

>  <SMILES>
CC\C=C/C\C=C/C\C=C/C\C=C/C\C=C/CCCC(O)=O

>  <JCHEM_ACCEPTOR_COUNT>
2

>  <JCHEM_DONOR_COUNT>
1

>  <JCHEM_ACIDIC_PKA>
4.82

>  <JCHEM_PHYSIOLOGICAL_CHARGE>
-1

>  <ALOGPS_LOGP>
6.53

>  <JCHEM_LOGP>
6.23

>  <ALOGPS_LOGS>
-6

>  <JCHEM_POLARIZABILITY>
35.93

>  <JCHEM_POLAR_SURFACE_AREA>
37.3

>  <JCHEM_REFRACTIVITY>
101.07

>  <JCHEM_ROTATABLE_BOND_COUNT>
13

>  <ALOGPS_SOLUBILITY>
2.89e-04 g/l

$$$$
160
  Mrv0541 02231214292D          

  6  5  0  0  1  0            999 V2000
    4.2361   -0.2063    0.0000 O   0  0  0  0  0  0  0  0  0  0  0  0
    3.5217    1.0312    0.0000 O   0  0  0  0  0  0  0  0  0  0  0  0
    2.0928    0.2063    0.0000 N   0  0  0  0  0  0  0  0  0  0  0  0
    2.8072   -0.2063    0.0000 C   0  0  1  0  0  0  0  0  0  0  0  0
    2.8072   -1.0312    0.0000 C   0  0  0  0  0  0  0  0  0  0  0  0
    3.5217    0.2063    0.0000 C   0  0  0  0  0  0  0  0  0  0  0  0
  1  6  1  0  0  0  0
  2  6  2  0  0  0  0
  4  3  1  6  0  0  0
  4  5  1  0  0  0  0
  4  6  1  0  0  0  0
M  END
>  <DRUGBANK_ID>
DB00160

>  <DRUG_GROUPS>
approved; nutraceutical

>  <GENERIC_NAME>
L-Alanine

>  <SYNONYMS>
(2S)-2-Aminopropanoic acid; (S)-(+)-Alanine; (S)-2-Aminopropanoic acid; (S)-Alanine; 2-Aminopropanoic acid; 2-Aminopropionic acid; a-Alanine; a-Aminopropionic acid; ALA; Alanine; L-(+)-Alanine; L-2-Aminopropanoic acid; L-2-Aminopropionic acid; L-a-Alanine; L-a-Aminopropionic acid

>  <CHEMICAL_FORMULA>
C3H7NO2

>  <MOLECULAR_WEIGHT>
89.0932

>  <EXACT_MASS>
89.047678473

>  <IUPAC_NAME>
(2S)-2-aminopropanoic acid

>  <INCHI_IDENTIFIER>
InChI=1S/C3H7NO2/c1-2(4)3(5)6/h2H,4H2,1H3,(H,5,6)/t2-/m0/s1

>  <INCHI_KEY>
InChIKey=QNAYBMKLOCPYGJ-REOHCLBHSA-N

>  <SMILES>
C[C@H](N)C(O)=O

>  <JCHEM_ACCEPTOR_COUNT>
3

>  <JCHEM_DONOR_COUNT>
2

>  <JCHEM_ACIDIC_PKA>
2.47

>  <JCHEM_BASIC_PKA>
9.48

>  <JCHEM_PHYSIOLOGICAL_CHARGE>
0

>  <ALOGPS_LOGP>
-3

>  <JCHEM_LOGP>
-2.8

>  <ALOGPS_LOGS>
0.7

>  <JCHEM_POLARIZABILITY>
8.52

>  <JCHEM_POLAR_SURFACE_AREA>
63.32

>  <JCHEM_REFRACTIVITY>
20.5

>  <JCHEM_ROTATABLE_BOND_COUNT>
1

>  <ALOGPS_SOLUBILITY>
4.47e+02 g/l

$$$$
 
  Mrv0541 02231214292D          
 
  8  7  0  0  1  0            999 V2000
   14.6656  -11.2582    0.0000 C   0  0  1  0  0  0  0  0  0  0  0  0
   15.3836  -10.8475    0.0000 C   0  0  0  0  0  0  0  0  0  0  0  0
   13.9476  -10.8372    0.0000 C   0  0  0  0  0  0  0  0  0  0  0  0
   14.6622  -12.0867    0.0000 N   0  0  0  0  0  0  0  0  0  0  0  0
   16.0948  -11.2651    0.0000 C   0  0  0  0  0  0  0  0  0  0  0  0
   15.3871  -10.0225    0.0000 C   0  0  0  0  0  0  0  0  0  0  0  0
   13.2330  -11.2479    0.0000 O   0  0  0  0  0  0  0  0  0  0  0  0
   13.9510  -10.0155    0.0000 O   0  0  0  0  0  0  0  0  0  0  0  0
  1  2  1  0  0  0  0
  1  3  1  0  0  0  0
  1  4  1  6  0  0  0
  2  5  1  0  0  0  0
  2  6  1  0  0  0  0
  3  7  1  0  0  0  0
  3  8  2  0  0  0  0
M  END
>  <DRUGBANK_ID>
DB00161

>  <DRUG_GROUPS>
approved; nutraceutical

>  <GENERIC_NAME>
L-Valine

>  <SYNONYMS>
(2S)-2-Amino-3-methylbutanoic acid; (S)-2-Amino-3-methylbutanoic acid; (S)-2-Amino-3-methylbutyric acid; (S)-a-Amino-b-methylbutyric acid; (S)-Valine; 2-Amino-3-methylbutanoic acid; 2-Amino-3-methylbutyric acid; L-(+)-a-Aminoisovaleric acid; L-a-Amino-b-methylbutyric acid; Valine

>  <CHEMICAL_FORMULA>
C5H11NO2

>  <MOLECULAR_WEIGHT>
117.1463

>  <EXACT_MASS>
117.078978601

>  <IUPAC_NAME>
(2S)-2-amino-3-methylbutanoic acid

>  <INCHI_IDENTIFIER>
InChI=1S/C5H11NO2/c1-3(2)4(6)5(7)8/h3-4H,6H2,1-2H3,(H,7,8)/t4-/m0/s1

>  <INCHI_KEY>
InChIKey=KZSNJWFQEVHDMF-BYPYZUCNSA-N

>  <SMILES>
CC(C)[C@H](N)C(O)=O

>  <JCHEM_ACCEPTOR_COUNT>
3

>  <JCHEM_DONOR_COUNT>
2

>  <JCHEM_ACIDIC_PKA>
2.72

>  <JCHEM_BASIC_PKA>
9.6

>  <JCHEM_PHYSIOLOGICAL_CHARGE>
0

>  <ALOGPS_LOGP>
-2.3

>  <JCHEM_LOGP>
-2

>  <ALOGPS_LOGS>
0.26

>  <JCHEM_POLARIZABILITY>
12.19

>  <JCHEM_POLAR_SURFACE_AREA>
63.32

>  <JCHEM_REFRACTIVITY>
29.49

>  <JCHEM_ROTATABLE_BOND_COUNT>
2

>  <ALOGPS_SOLUBILITY>
2.14e+02 g/l

$$$$
162
  Mrv0541 02231214292D          

 21 21  0  0  0  0            999 V2000
    2.0930    0.0000    0.0000 O   0  0  0  0  0  0  0  0  0  0  0  0
    9.9524    0.4125    0.0000 C   0  0  0  0  0  0  0  0  0  0  0  0
   10.6668    0.0000    0.0000 C   0  0  0  0  0  0  0  0  0  0  0  0
   10.6668   -0.8250    0.0000 C   0  0  0  0  0  0  0  0  0  0  0  0
    9.2379    0.0000    0.0000 C   0  0  0  0  0  0  0  0  0  0  0  0
    9.9524   -1.2375    0.0000 C   0  0  0  0  0  0  0  0  0  0  0  0
    9.2379   -0.8250    0.0000 C   0  0  0  0  0  0  0  0  0  0  0  0
   10.3649    1.1270    0.0000 C   0  0  0  0  0  0  0  0  0  0  0  0
    9.5398    1.1270    0.0000 C   0  0  0  0  0  0  0  0  0  0  0  0
    8.5234    0.4125    0.0000 C   0  0  0  0  0  0  0  0  0  0  0  0
    8.5234   -1.2375    0.0000 C   0  0  0  0  0  0  0  0  0  0  0  0
    7.8089    0.0000    0.0000 C   0  0  0  0  0  0  0  0  0  0  0  0
    7.0944    0.4125    0.0000 C   0  0  0  0  0  0  0  0  0  0  0  0
    7.0944    1.2375    0.0000 C   0  0  0  0  0  0  0  0  0  0  0  0
    6.3799    0.0000    0.0000 C   0  0  0  0  0  0  0  0  0  0  0  0
    5.6655    0.4125    0.0000 C   0  0  0  0  0  0  0  0  0  0  0  0
    4.9509    0.0000    0.0000 C   0  0  0  0  0  0  0  0  0  0  0  0
    4.2365    0.4125    0.0000 C   0  0  0  0  0  0  0  0  0  0  0  0
    4.2365    1.2375    0.0000 C   0  0  0  0  0  0  0  0  0  0  0  0
    3.5220    0.0000    0.0000 C   0  0  0  0  0  0  0  0  0  0  0  0
    2.8075    0.4125    0.0000 C   0  0  0  0  0  0  0  0  0  0  0  0
  1 21  1  0  0  0  0
  2  3  1  0  0  0  0
  2  5  1  0  0  0  0
  2  8  1  0  0  0  0
  2  9  1  0  0  0  0
  3  4  1  0  0  0  0
  4  6  1  0  0  0  0
  5  7  2  0  0  0  0
  5 10  1  0  0  0  0
  6  7  1  0  0  0  0
  7 11  1  0  0  0  0
 10 12  2  3  0  0  0
 12 13  1  0  0  0  0
 13 14  1  0  0  0  0
 13 15  2  3  0  0  0
 15 16  1  0  0  0  0
 16 17  2  3  0  0  0
 17 18  1  0  0  0  0
 18 19  1  0  0  0  0
 18 20  2  3  0  0  0
 20 21  1  0  0  0  0
M  END
>  <DRUGBANK_ID>
DB00162

>  <DRUG_GROUPS>
approved; nutraceutical

>  <GENERIC_NAME>
Vitamin A

>  <SYNONYMS>
[11,12-3H]-Retinol; all-trans-retinol; All-trans-Retinyl alcohol; all-trans-Vitamin A; All-trans-Vitamin A alcohol; all-trans-Vitamin A1; beta-Retinol; Retin-11,12-t2-ol (9CI); Retinol; trans-Retinol; trans-Vitamin A alcohol; Vitamin A (Feed); Vitamin A alcohol; Vitamin A cryst; Vitamin A Palmitate; Vitamin A Solubilized; Vitamin A1; Vitamin A1 alcohol

>  <BRANDS>
A-Mulsal; A-Sol; A-Vi-Pel; A-Vitan; Acon; Afaxin; Agiolan; Agoncal; Alcovit A; alin; Alphalin; Alphasterol; Anatola; Anatola A; Anti-Infective vitamin; Antixerophthalmic vitamin; Aoral; Apexol; Apostavit; Aquasol A Parenteral; Aquasynth; asterol; Atars; Atav; Avibon; Avita; Avitol; Axerol; Axerophthol; Bentavit A; Biosterol; Chocola A; Cylasphere; Del-VI-A; Disatabs Tabs; Dofsol; Dohyfral A; Epiteliol; Hi-A-Vita; Homagenets Aoral; Homagenets aorl; Lard Factor; Mvc Plus; Myvpack; Nio-A-Let; Oleovitamin A; Ophthalamin; Plivit A; Prepalin; Retrovitamin A; Ro-a-vit; Sehkraft A; Solu-A; Super A; Testavol; Testavol S; Thalasphere; tROL; Vaflol; Vafol; Veroftal; Vi-a; Vi-Alpha; Vi-Dom-A; Vio-A; Vitavel A; Vitpex; Vogan; Vogan-Neu; Vogan-nu; Zineb; Zinosan N

>  <CHEMICAL_FORMULA>
C20H30O

>  <MOLECULAR_WEIGHT>
286.4516

>  <EXACT_MASS>
286.229665582

>  <IUPAC_NAME>
3,7-dimethyl-9-(2,6,6-trimethylcyclohex-1-en-1-yl)nona-2,4,6,8-tetraen-1-ol

>  <INCHI_IDENTIFIER>
InChI=1S/C20H30O/c1-16(8-6-9-17(2)13-15-21)11-12-19-18(3)10-7-14-20(19,4)5/h6,8-9,11-13,21H,7,10,14-15H2,1-5H3/b9-6+,12-11+,16-8+,17-13+

>  <INCHI_KEY>
InChIKey=FPIPGXGPPPQFEQ-OVSJKPMPSA-N

>  <SMILES>
CC(=CCO)C=CC=C(C)C=CC1=C(C)CCCC1(C)C

>  <JCHEM_ACCEPTOR_COUNT>
1

>  <JCHEM_DONOR_COUNT>
1

>  <JCHEM_ACIDIC_PKA>
16.44

>  <JCHEM_BASIC_PKA>
-2.2

>  <JCHEM_PHYSIOLOGICAL_CHARGE>
0

>  <ALOGPS_LOGP>
6.38

>  <JCHEM_LOGP>
4.69

>  <ALOGPS_LOGS>
-4.6

>  <JCHEM_POLARIZABILITY>
36.54

>  <JCHEM_POLAR_SURFACE_AREA>
20.23

>  <JCHEM_REFRACTIVITY>
97.92

>  <JCHEM_ROTATABLE_BOND_COUNT>
5

>  <ALOGPS_SOLUBILITY>
7.58e-03 g/l

$$$$
163
  Mrv0541 02231214292D          

 31 32  0  0  1  0            999 V2000
    4.9740   -2.3009    0.0000 O   0  0  0  0  0  0  0  0  0  0  0  0
    2.0930   -0.6223    0.0000 O   0  0  0  0  0  0  0  0  0  0  0  0
    5.7215   -1.8770    0.0000 C   0  0  2  0  0  0  0  0  0  0  0  0
    6.5465   -1.8801    0.0000 C   0  0  0  0  0  0  0  0  0  0  0  0
    5.7215   -1.0177    0.0000 C   0  0  0  0  0  0  0  0  0  0  0  0
    6.9617   -1.1673    0.0000 C   0  0  0  0  0  0  0  0  0  0  0  0
    8.2021   -0.4576    0.0000 C   0  0  1  0  0  0  0  0  0  0  0  0
    7.7867   -1.1705    0.0000 C   0  0  0  0  0  0  0  0  0  0  0  0
    4.9740   -0.5937    0.0000 C   0  0  0  0  0  0  0  0  0  0  0  0
    9.0271   -0.4608    0.0000 C   0  0  0  0  0  0  0  0  0  0  0  0
    6.1313   -2.5930    0.0000 C   0  0  0  0  0  0  0  0  0  0  0  0
    4.2365   -1.0348    0.0000 C   0  0  0  0  0  0  0  0  0  0  0  0
    9.4423    0.2521    0.0000 C   0  0  0  0  0  0  0  0  0  0  0  0
    4.2365   -1.8598    0.0000 C   0  0  0  0  0  0  0  0  0  0  0  0
   10.2673    0.2490    0.0000 C   0  0  0  0  0  0  0  0  0  0  0  0
   10.6826    0.9619    0.0000 C   0  0  1  0  0  0  0  0  0  0  0  0
    7.7923    0.2585    0.0000 C   0  0  0  0  0  0  0  0  0  0  0  0
   11.5076    0.9587    0.0000 C   0  0  0  0  0  0  0  0  0  0  0  0
    3.5220   -0.6223    0.0000 C   0  0  0  0  0  0  0  0  0  0  0  0
    3.5220   -2.2723    0.0000 C   0  0  0  0  0  0  0  0  0  0  0  0
   11.9229    1.6716    0.0000 C   0  0  0  0  0  0  0  0  0  0  0  0
    2.8075   -1.8598    0.0000 C   0  0  0  0  0  0  0  0  0  0  0  0
   10.2729    1.6779    0.0000 C   0  0  0  0  0  0  0  0  0  0  0  0
    2.8075   -1.0348    0.0000 C   0  0  0  0  0  0  0  0  0  0  0  0
   12.7478    1.6683    0.0000 C   0  0  0  0  0  0  0  0  0  0  0  0
   13.1631    2.3812    0.0000 C   0  0  0  0  0  0  0  0  0  0  0  0
    3.5220    0.2027    0.0000 C   0  0  0  0  0  0  0  0  0  0  0  0
    3.5220   -3.0974    0.0000 C   0  0  0  0  0  0  0  0  0  0  0  0
    2.0930   -2.2723    0.0000 C   0  0  0  0  0  0  0  0  0  0  0  0
   12.7533    3.0974    0.0000 C   0  0  0  0  0  0  0  0  0  0  0  0
   13.9881    2.3781    0.0000 C   0  0  0  0  0  0  0  0  0  0  0  0
  1  3  1  0  0  0  0
  1 14  1  0  0  0  0
  2 24  1  0  0  0  0
  3  4  1  0  0  0  0
  3  5  1  0  0  0  0
  3 11  1  6  0  0  0
  4  6  1  0  0  0  0
  5  9  1  0  0  0  0
  6  8  1  0  0  0  0
  7  8  1  0  0  0  0
  7 10  1  0  0  0  0
  7 17  1  6  0  0  0
  9 12  1  0  0  0  0
 10 13  1  0  0  0  0
 12 14  2  0  0  0  0
 12 19  1  0  0  0  0
 13 15  1  0  0  0  0
 14 20  1  0  0  0  0
 15 16  1  0  0  0  0
 16 18  1  0  0  0  0
 16 23  1  6  0  0  0
 18 21  1  0  0  0  0
 19 24  2  0  0  0  0
 19 27  1  0  0  0  0
 20 22  2  0  0  0  0
 20 28  1  0  0  0  0
 21 25  1  0  0  0  0
 22 24  1  0  0  0  0
 22 29  1  0  0  0  0
 25 26  1  0  0  0  0
 26 30  1  0  0  0  0
 26 31  1  0  0  0  0
M  END
>  <DRUGBANK_ID>
DB00163

>  <DRUG_GROUPS>
approved; nutraceutical

>  <GENERIC_NAME>
Vitamin E

>  <SYNONYMS>
alpha-Tocopherol; Tocopherol

>  <BRANDS>
Amino-Opti-E; Aquasol E; Daltose; E-200 I.U. Softgels; E-Complex-600; E-Ferol; E-Vitamin succinate; Gordo-Vite E; Vitamin Plus E Softgells; Vitec

>  <CHEMICAL_FORMULA>
C29H50O2

>  <MOLECULAR_WEIGHT>
430.7061

>  <EXACT_MASS>
430.381080844

>  <IUPAC_NAME>
(2R)-2,5,7,8-tetramethyl-2-[(4R,8R)-4,8,12-trimethyltridecyl]-3,4-dihydro-2H-1-benzopyran-6-ol

>  <INCHI_IDENTIFIER>
InChI=1S/C29H50O2/c1-20(2)12-9-13-21(3)14-10-15-22(4)16-11-18-29(8)19-17-26-25(7)27(30)23(5)24(6)28(26)31-29/h20-22,30H,9-19H2,1-8H3/t21-,22-,29-/m1/s1

>  <INCHI_KEY>
InChIKey=GVJHHUAWPYXKBD-IEOSBIPESA-N

>  <SMILES>
CC(C)CCC[C@@H](C)CCC[C@@H](C)CCC[C@]1(C)CCC2=C(O1)C(C)=C(C)C(O)=C2C

>  <JCHEM_ACCEPTOR_COUNT>
2

>  <JCHEM_DONOR_COUNT>
1

>  <JCHEM_ACIDIC_PKA>
10.8

>  <JCHEM_BASIC_PKA>
-4.9

>  <JCHEM_PHYSIOLOGICAL_CHARGE>
0

>  <ALOGPS_LOGP>
8.84

>  <JCHEM_LOGP>
10.51

>  <ALOGPS_LOGS>
-7.8

>  <JCHEM_POLARIZABILITY>
55.29

>  <JCHEM_POLAR_SURFACE_AREA>
29.46

>  <JCHEM_REFRACTIVITY>
135.37

>  <JCHEM_ROTATABLE_BOND_COUNT>
12

>  <ALOGPS_SOLUBILITY>
7.04e-06 g/l

$$$$
165
  Mrv0541 02231214292D          

 12 12  0  0  0  0            999 V2000
    2.5098   -1.5964    0.0000 O   0  0  0  0  0  0  0  0  0  0  0  0
    2.5098    0.8787    0.0000 O   0  0  0  0  0  0  0  0  0  0  0  0
    4.6533    1.2912    0.0000 O   0  0  0  0  0  0  0  0  0  0  0  0
    4.6532   -1.1839    0.0000 N   0  0  0  0  0  0  0  0  0  0  0  0
    3.2243   -0.3589    0.0000 C   0  0  0  0  0  0  0  0  0  0  0  0
    3.9388    0.0537    0.0000 C   0  0  0  0  0  0  0  0  0  0  0  0
    3.2243   -1.1839    0.0000 C   0  0  0  0  0  0  0  0  0  0  0  0
    3.9388   -1.5964    0.0000 C   0  0  0  0  0  0  0  0  0  0  0  0
    2.5098    0.0536    0.0000 C   0  0  0  0  0  0  0  0  0  0  0  0
    3.9388    0.8786    0.0000 C   0  0  0  0  0  0  0  0  0  0  0  0
    4.6533   -0.3588    0.0000 C   0  0  0  0  0  0  0  0  0  0  0  0
    3.9387   -2.4214    0.0000 C   0  0  0  0  0  0  0  0  0  0  0  0
  1  7  1  0  0  0  0
  2  9  1  0  0  0  0
  3 10  1  0  0  0  0
  4  8  2  0  0  0  0
  4 11  1  0  0  0  0
  5  6  1  0  0  0  0
  5  7  2  0  0  0  0
  5  9  1  0  0  0  0
  6 10  1  0  0  0  0
  6 11  2  0  0  0  0
  7  8  1  0  0  0  0
  8 12  1  0  0  0  0
M  END
>  <DRUGBANK_ID>
DB00165

>  <DRUG_GROUPS>
approved; nutraceutical

>  <GENERIC_NAME>
Pyridoxine

>  <SYNONYMS>
Pyridoxol; Vitamin B6

>  <SALTS>
pyridoxine hydrochloride

>  <BRANDS>
Aderoxine; Alestrol; Becilan; Beesix; Benadon; Bonasanit; Campoviton 6; Gravidox; Hexa-Betalin; Hexavibex; Hexermin; Hexermine; Hexobion; Hydoxin; Nestrex; Pydox; Pyridipca; Pyridox; Rodex TD; Tex Six T.R.

>  <CHEMICAL_FORMULA>
C8H11NO3

>  <MOLECULAR_WEIGHT>
169.1778

>  <EXACT_MASS>
169.073893223

>  <IUPAC_NAME>
4,5-bis(hydroxymethyl)-2-methylpyridin-3-ol

>  <INCHI_IDENTIFIER>
InChI=1S/C8H11NO3/c1-5-8(12)7(4-11)6(3-10)2-9-5/h2,10-12H,3-4H2,1H3

>  <INCHI_KEY>
InChIKey=LXNHXLLTXMVWPM-UHFFFAOYSA-N

>  <SMILES>
CC1=NC=C(CO)C(CO)=C1O

>  <JCHEM_ACCEPTOR_COUNT>
4

>  <JCHEM_DONOR_COUNT>
3

>  <JCHEM_ACIDIC_PKA>
9.4

>  <JCHEM_BASIC_PKA>
5.58

>  <JCHEM_PHYSIOLOGICAL_CHARGE>
0

>  <ALOGPS_LOGP>
-0.57

>  <JCHEM_LOGP>
-0.95

>  <ALOGPS_LOGS>
-1

>  <JCHEM_POLARIZABILITY>
17.12

>  <JCHEM_POLAR_SURFACE_AREA>
73.58

>  <JCHEM_REFRACTIVITY>
44.11

>  <JCHEM_ROTATABLE_BOND_COUNT>
2

>  <ALOGPS_SOLUBILITY>
1.61e+01 g/l

$$$$

  Mrv0541 04191212102D          

 12 12  0  0  0  0            999 V2000
   -0.0308    0.7026    0.0000 C   0  0  0  0  0  0  0  0  0  0  0  0
    0.3817   -0.5669    0.0000 S   0  0  0  0  0  0  0  0  0  0  0  0
   -0.6982    0.2177    0.0000 C   0  0  0  0  0  0  0  0  0  0  0  0
   -0.4433   -0.5669    0.0000 S   0  0  0  0  0  0  0  0  0  0  0  0
    0.6366    0.2177    0.0000 C   0  0  0  0  0  0  0  0  0  0  0  0
    1.3511    0.6302    0.0000 C   0  0  0  0  0  0  0  0  0  0  0  0
    2.0656    0.2177    0.0000 C   0  0  0  0  0  0  0  0  0  0  0  0
    2.7801    0.6302    0.0000 C   0  0  0  0  0  0  0  0  0  0  0  0
    3.4945    0.2177    0.0000 C   0  0  0  0  0  0  0  0  0  0  0  0
    4.2090    0.6302    0.0000 C   0  0  0  0  0  0  0  0  0  0  0  0
    4.2090    1.4552    0.0000 O   0  0  0  0  0  0  0  0  0  0  0  0
    4.9235    0.2177    0.0000 O   0  0  0  0  0  0  0  0  0  0  0  0
  5  1  1  0  0  0  0
  5  2  1  0  0  0  0
  1  3  1  0  0  0  0
  2  4  1  0  0  0  0
  3  4  1  0  0  0  0
  5  6  1  0  0  0  0
  6  7  1  0  0  0  0
  7  8  1  0  0  0  0
  8  9  1  0  0  0  0
  9 10  1  0  0  0  0
 10 12  1  0  0  0  0
 10 11  2  0  0  0  0
M  END
>  <DRUGBANK_ID>
DB00166

>  <DRUG_GROUPS>
approved; nutraceutical

>  <GENERIC_NAME>
Lipoic Acid

>  <SYNONYMS>
1,2-Dithiolane-3R-pentanoic acid; alpha-Lipoic acid; Lipoate; Thioctic acid

>  <BRANDS>
Biletan; Heparlipon; Thioctsan

>  <CHEMICAL_FORMULA>
C8H14O2S2

>  <MOLECULAR_WEIGHT>
206.326

>  <EXACT_MASS>
206.043521072

>  <IUPAC_NAME>
5-(1,2-dithiolan-3-yl)pentanoic acid

>  <INCHI_IDENTIFIER>
InChI=1S/C8H14O2S2/c9-8(10)4-2-1-3-7-5-6-11-12-7/h7H,1-6H2,(H,9,10)

>  <INCHI_KEY>
InChIKey=AGBQKNBQESQNJD-UHFFFAOYSA-N

>  <SMILES>
OC(=O)CCCCC1CCSS1

>  <JCHEM_ACCEPTOR_COUNT>
2

>  <JCHEM_DONOR_COUNT>
1

>  <JCHEM_ACIDIC_PKA>
4.52

>  <JCHEM_PHYSIOLOGICAL_CHARGE>
-1

>  <ALOGPS_LOGP>
2.75

>  <JCHEM_LOGP>
2.11

>  <ALOGPS_LOGS>
-3

>  <JCHEM_POLARIZABILITY>
22

>  <JCHEM_POLAR_SURFACE_AREA>
37.3

>  <JCHEM_REFRACTIVITY>
54.37

>  <JCHEM_ROTATABLE_BOND_COUNT>
5

>  <ALOGPS_SOLUBILITY>
2.24e-01 g/l

$$$$
167
  Mrv0541 02231214292D          

  9  8  0  0  1  0            999 V2000
    5.2224   -0.0784    0.0000 O   0  0  0  0  0  0  0  0  0  0  0  0
    4.5080    1.1592    0.0000 O   0  0  0  0  0  0  0  0  0  0  0  0
    3.7935   -0.9034    0.0000 N   0  0  0  0  0  0  0  0  0  0  0  0
    3.0791    0.3341    0.0000 C   0  0  2  0  0  0  0  0  0  0  0  0
    3.7935   -0.0784    0.0000 C   0  0  1  0  0  0  0  0  0  0  0  0
    2.3645   -0.0784    0.0000 C   0  0  0  0  0  0  0  0  0  0  0  0
    3.0791    1.1592    0.0000 C   0  0  0  0  0  0  0  0  0  0  0  0
    1.6500    0.3341    0.0000 C   0  0  0  0  0  0  0  0  0  0  0  0
    4.5080    0.3341    0.0000 C   0  0  0  0  0  0  0  0  0  0  0  0
  1  9  1  0  0  0  0
  2  9  2  0  0  0  0
  5  3  1  1  0  0  0
  4  5  1  0  0  0  0
  4  6  1  0  0  0  0
  4  7  1  6  0  0  0
  5  9  1  0  0  0  0
  6  8  1  0  0  0  0
M  END
>  <DRUGBANK_ID>
DB00167

>  <DRUG_GROUPS>
approved; nutraceutical

>  <GENERIC_NAME>
L-Isoleucine

>  <SYNONYMS>
(2S,3S)-2-Amino-3-methylpentanoic acid; (2S,3S)-a-Amino-b-methyl-n-valeric acid; (2S,3S)-a-Amino-b-methylvaleric acid; (S,S)-Isoleucine; (S)-Isoleucine; 2-Amino-3-methylvaleric acid; 2S,3S-Isoleucine; erythro-L-Isoleucine; Isoleucine; L-(+)-Isoleucine; L-Ile

>  <CHEMICAL_FORMULA>
C6H13NO2

>  <MOLECULAR_WEIGHT>
131.1729

>  <EXACT_MASS>
131.094628665

>  <IUPAC_NAME>
(2S,3S)-2-amino-3-methylpentanoic acid

>  <INCHI_IDENTIFIER>
InChI=1S/C6H13NO2/c1-3-4(2)5(7)6(8)9/h4-5H,3,7H2,1-2H3,(H,8,9)/t4-,5-/m0/s1

>  <INCHI_KEY>
InChIKey=AGPKZVBTJJNPAG-WHFBIAKZSA-N

>  <SMILES>
CC[C@H](C)[C@H](N)C(O)=O

>  <JCHEM_ACCEPTOR_COUNT>
3

>  <JCHEM_DONOR_COUNT>
2

>  <JCHEM_ACIDIC_PKA>
2.79

>  <JCHEM_BASIC_PKA>
9.59

>  <JCHEM_PHYSIOLOGICAL_CHARGE>
0

>  <ALOGPS_LOGP>
-1.7

>  <JCHEM_LOGP>
-1.5

>  <ALOGPS_LOGS>
-0.06

>  <JCHEM_POLARIZABILITY>
14.11

>  <JCHEM_POLAR_SURFACE_AREA>
63.32

>  <JCHEM_REFRACTIVITY>
34.09

>  <JCHEM_ROTATABLE_BOND_COUNT>
3

>  <ALOGPS_SOLUBILITY>
1.14e+02 g/l

$$$$
