
  Mrv0541 04191212102D          

 21 21  0  0  0  0            999 V2000
   -4.5964   -0.8839    0.0000 C   0  0  0  0  0  0  0  0  0  0  0  0
   -3.8820   -0.4714    0.0000 C   0  0  0  0  0  0  0  0  0  0  0  0
   -3.1675   -0.8839    0.0000 C   0  0  1  0  0  0  0  0  0  0  0  0
   -2.4530   -0.4714    0.0000 C   0  0  0  0  0  0  0  0  0  0  0  0
   -1.7385   -0.8839    0.0000 N   0  0  0  0  0  0  0  0  0  0  0  0
   -1.0241   -0.4714    0.0000 C   0  0  1  0  0  0  0  0  0  0  0  0
   -0.3096   -0.8839    0.0000 C   0  0  0  0  0  0  0  0  0  0  0  0
    0.4049   -0.4714    0.0000 C   0  0  0  0  0  0  0  0  0  0  0  0
    1.1193    0.7661    0.0000 C   0  0  0  0  0  0  0  0  0  0  0  0
    0.4049    0.3536    0.0000 C   0  0  0  0  0  0  0  0  0  0  0  0
    1.1193   -0.8839    0.0000 C   0  0  0  0  0  0  0  0  0  0  0  0
    1.8338   -0.4714    0.0000 C   0  0  0  0  0  0  0  0  0  0  0  0
    1.8338    0.3536    0.0000 C   0  0  0  0  0  0  0  0  0  0  0  0
   -4.5964   -1.7089    0.0000 O   0  0  0  0  0  0  0  0  0  0  0  0
   -5.3109   -0.4714    0.0000 O   0  0  0  0  0  0  0  0  0  0  0  0
   -3.1675   -1.7089    0.0000 N   0  0  0  0  0  0  0  0  0  0  0  0
   -2.4530    0.3536    0.0000 O   0  0  0  0  0  0  0  0  0  0  0  0
   -1.0241    0.3536    0.0000 C   0  0  0  0  0  0  0  0  0  0  0  0
   -1.7385    0.7661    0.0000 O   0  0  0  0  0  0  0  0  0  0  0  0
   -0.3096    0.7661    0.0000 O   0  0  0  0  0  0  0  0  0  0  0  0
   -0.3096    1.5911    0.0000 C   0  0  0  0  0  0  0  0  0  0  0  0
  1  2  1  0  0  0  0
  2  3  1  0  0  0  0
  3  4  1  0  0  0  0
  4  5  1  0  0  0  0
  5  6  1  0  0  0  0
  6  7  1  0  0  0  0
  7  8  1  0  0  0  0
 10  8  2  0  0  0  0
  8 11  1  0  0  0  0
  9 10  1  0  0  0  0
  9 13  2  0  0  0  0
 11 12  2  0  0  0  0
 12 13  1  0  0  0  0
  1 14  2  0  0  0  0
  1 15  1  0  0  0  0
  3 16  1  1  0  0  0
  4 17  2  0  0  0  0
  6 18  1  6  0  0  0
 18 19  2  0  0  0  0
 18 20  1  0  0  0  0
 20 21  1  0  0  0  0
M  END
>  <DRUGBANK_ID>
DB00168

>  <DRUG_GROUPS>
approved; nutraceutical

>  <GENERIC_NAME>
Aspartame

>  <SYNONYMS>
1-Methyl N-L-alpha-aspartyl-L-phenylalanate; 1-Methyl N-L-alpha-aspartyl-L-phenylalanine; 3-Amino-N-(alpha-carboxyphenethyl)succinamic acid N-methyl ester; 3-Amino-N-(alpha-carboxyphenethyl)succinamic acid N-methyl ester, stereoisomer; 3-Amino-N-(alpha-methoxycarbonylphenethyl) succinamic acid; Asp-phe-ome; Aspartam [INN-French]; Aspartame [USAN:BAN:INN]; Aspartamo [INN-Spanish]; Aspartamum [INN-Latin]; Aspartylphenylalanine methyl ester; L-Aspartyl-L-phenylalanine methyl ester; Methyl aspartylphenylalanate; Methyl L-alpha-aspartyl-L-phenylalanate; Methyl L-aspartyl-L-phenylalanine; Methyl N-L-alpha-aspartyl-L-phenylalaninate; N-L-alpha-Aspartyl-L-phenylalanine 1-methyl ester

>  <BRANDS>
Aminosweet; Canderel; Equal; Nutrasweet; Tri-sweet

>  <CHEMICAL_FORMULA>
C14H18N2O5

>  <MOLECULAR_WEIGHT>
294.3031

>  <EXACT_MASS>
294.121571696

>  <IUPAC_NAME>
(3S)-3-amino-3-{[(2S)-1-methoxy-1-oxo-3-phenylpropan-2-yl]carbamoyl}propanoic acid

>  <INCHI_IDENTIFIER>
InChI=1S/C14H18N2O5/c1-21-14(20)11(7-9-5-3-2-4-6-9)16-13(19)10(15)8-12(17)18/h2-6,10-11H,7-8,15H2,1H3,(H,16,19)(H,17,18)/t10-,11-/m0/s1

>  <INCHI_KEY>
InChIKey=IAOZJIPTCAWIRG-QWRGUYRKSA-N

>  <SMILES>
COC(=O)[C@H](CC1=CC=CC=C1)NC(=O)[C@@H](N)CC(O)=O

>  <JCHEM_ACCEPTOR_COUNT>
5

>  <JCHEM_DONOR_COUNT>
3

>  <JCHEM_ACIDIC_PKA>
3.53

>  <JCHEM_BASIC_PKA>
8.53

>  <JCHEM_PHYSIOLOGICAL_CHARGE>
0

>  <ALOGPS_LOGP>
-1.2

>  <JCHEM_LOGP>
-2.2

>  <ALOGPS_LOGS>
-2.6

>  <JCHEM_POLARIZABILITY>
29.58

>  <JCHEM_POLAR_SURFACE_AREA>
118.72

>  <JCHEM_REFRACTIVITY>
73.22

>  <JCHEM_ROTATABLE_BOND_COUNT>
8

>  <ALOGPS_SOLUBILITY>
6.52e-01 g/l

$$$$

  Mrv0541 04191212102D          

 30 32  0  0  1  0            999 V2000
   -1.0890    1.2765    0.0000 C   0  0  0  0  0  0  0  0  0  0  0  0
   -1.0890   -0.3735    0.0000 C   0  0  0  0  0  0  0  0  0  0  0  0
    0.4101   -0.2159    0.0000 C   0  0  0  0  0  0  0  0  0  0  0  0
    0.8950    0.4515    0.0000 C   0  0  0  0  0  0  0  0  0  0  0  0
   -1.8035    0.8640    0.0000 C   0  0  0  0  0  0  0  0  0  0  0  0
   -1.0890   -1.1985    0.0000 C   0  0  0  0  0  0  0  0  0  0  0  0
   -1.8035    0.0390    0.0000 C   0  0  0  0  0  0  0  0  0  0  0  0
   -1.8035   -1.6110    0.0000 C   0  0  0  0  0  0  0  0  0  0  0  0
   -1.8035   -2.4360    0.0000 C   0  0  0  0  0  0  0  0  0  0  0  0
   -1.0890   -2.8485    0.0000 C   0  0  0  0  0  0  0  0  0  0  0  0
   -2.5179   -2.8485    0.0000 C   0  0  0  0  0  0  0  0  0  0  0  0
   -1.0890   -3.6735    0.0000 C   0  0  0  0  0  0  0  0  0  0  0  0
   -0.3745   -2.4360    0.0000 C   0  0  0  0  0  0  0  0  0  0  0  0
   -2.5179   -3.6735    0.0000 C   0  0  2  0  0  0  0  0  0  0  0  0
   -1.8035   -4.0860    0.0000 C   0  0  0  0  0  0  0  0  0  0  0  0
   -3.2324   -4.0860    0.0000 O   0  0  0  0  0  0  0  0  0  0  0  0
   -0.3044    2.3565    0.0000 C   0  0  0  0  0  0  0  0  0  0  0  0
    0.4101    1.9440    0.0000 C   0  0  2  0  0  0  0  0  0  0  0  0
    1.1246    2.3565    0.0000 C   0  0  0  0  0  0  0  0  0  0  0  0
    1.8390    1.9440    0.0000 C   0  0  0  0  0  0  0  0  0  0  0  0
    3.9825    2.3565    0.0000 C   0  0  0  0  0  0  0  0  0  0  0  0
    3.2680    1.9440    0.0000 C   0  0  0  0  0  0  0  0  0  0  0  0
    3.2680    1.1190    0.0000 C   0  0  0  0  0  0  0  0  0  0  0  0
    2.5535    2.3565    0.0000 C   0  0  0  0  0  0  0  0  0  0  0  0
    0.4101    1.1190    0.0000 C   0  0  2  0  0  0  0  0  0  0  0  0
    1.1246    1.5315    0.0000 H   0  0  0  0  0  0  0  0  0  0  0  0
   -0.3745    0.0390    0.0000 C   0  0  2  0  0  0  0  0  0  0  0  0
   -0.3745   -0.7860    0.0000 H   0  0  0  0  0  0  0  0  0  0  0  0
   -0.3745    0.8640    0.0000 C   0  0  2  0  0  0  0  0  0  0  0  0
   -0.3745    1.6890    0.0000 C   0  0  0  0  0  0  0  0  0  0  0  0
 27 29  1  0  0  0  0
 29 25  1  0  0  0  0
 29  1  1  0  0  0  0
 27  2  1  0  0  0  0
 27  3  1  0  0  0  0
 25  4  1  0  0  0  0
  1  5  1  0  0  0  0
  2  6  2  0  0  0  0
  2  7  1  0  0  0  0
  6  8  1  0  0  0  0
  8  9  2  0  0  0  0
  9 10  1  0  0  0  0
  9 11  1  0  0  0  0
 10 12  1  0  0  0  0
 10 13  2  0  0  0  0
 11 14  1  0  0  0  0
 12 15  1  0  0  0  0
 14 16  1  6  0  0  0
  3  4  1  0  0  0  0
  5  7  1  0  0  0  0
 14 15  1  0  0  0  0
 25 18  1  0  0  0  0
 18 17  1  6  0  0  0
 18 19  1  0  0  0  0
 19 20  1  0  0  0  0
 20 24  1  0  0  0  0
 24 22  1  0  0  0  0
 22 21  1  0  0  0  0
 22 23  1  0  0  0  0
 25 26  1  6  0  0  0
 27 28  1  6  0  0  0
 29 30  1  1  0  0  0
M  END
>  <DRUGBANK_ID>
DB00169

>  <DRUG_GROUPS>
approved; nutraceutical

>  <GENERIC_NAME>
Cholecalciferol

>  <SYNONYMS>
(+)-vitamin D3; calciol; CC; Colecalciferol; Vitamin D3

>  <BRANDS>
Delsterol; Delta-D; Deparal; Ebivit; Micro-Dee; Oleovitamin D3; Provitamin D3; Provitamine; Provitina; Ricketon; Trivitan; Vigantol; Vigorsan

>  <CHEMICAL_FORMULA>
C27H44O

>  <MOLECULAR_WEIGHT>
384.6377

>  <EXACT_MASS>
384.33921603

>  <IUPAC_NAME>
(1S,3Z)-3-{2-[(1R,3aS,4E,7aR)-7a-methyl-1-[(2R)-6-methylheptan-2-yl]-octahydro-1H-inden-4-ylidene]ethylidene}-4-methylidenecyclohexan-1-ol

>  <INCHI_IDENTIFIER>
InChI=1S/C27H44O/c1-19(2)8-6-9-21(4)25-15-16-26-22(10-7-17-27(25,26)5)12-13-23-18-24(28)14-11-20(23)3/h12-13,19,21,24-26,28H,3,6-11,14-18H2,1-2,4-5H3/b22-12+,23-13-/t21-,24+,25-,26+,27-/m1/s1

>  <INCHI_KEY>
InChIKey=QYSXJUFSXHHAJI-YRZJJWOYSA-N

>  <SMILES>
CC(C)CCC[C@@H](C)[C@@]1([H])CC[C@@]2([H])\C(CCC[C@]12C)=C\C=C1\C[C@@H](O)CCC1=C

>  <JCHEM_ACCEPTOR_COUNT>
1

>  <JCHEM_DONOR_COUNT>
1

>  <JCHEM_ACIDIC_PKA>
18.38

>  <JCHEM_BASIC_PKA>
-1.3

>  <JCHEM_PHYSIOLOGICAL_CHARGE>
0

>  <ALOGPS_LOGP>
7.98

>  <JCHEM_LOGP>
7.13

>  <ALOGPS_LOGS>
-6

>  <JCHEM_POLARIZABILITY>
49.6

>  <JCHEM_POLAR_SURFACE_AREA>
20.23

>  <JCHEM_REFRACTIVITY>
123.22

>  <JCHEM_ROTATABLE_BOND_COUNT>
6

>  <ALOGPS_SOLUBILITY>
3.80e-04 g/l

$$$$
170
  Mrv0541 02231214292D          

 13 14  0  0  0  0            999 V2000
    3.0786   -1.6498    0.0000 O   0  0  0  0  0  0  0  0  0  0  0  0
    3.0786    1.6498    0.0000 O   0  0  0  0  0  0  0  0  0  0  0  0
    3.7929   -0.4124    0.0000 C   0  0  0  0  0  0  0  0  0  0  0  0
    3.7929    0.4124    0.0000 C   0  0  0  0  0  0  0  0  0  0  0  0
    2.3641   -0.4124    0.0000 C   0  0  0  0  0  0  0  0  0  0  0  0
    3.0786   -0.8249    0.0000 C   0  0  0  0  0  0  0  0  0  0  0  0
    3.0786    0.8249    0.0000 C   0  0  0  0  0  0  0  0  0  0  0  0
    2.3641    0.4124    0.0000 C   0  0  0  0  0  0  0  0  0  0  0  0
    4.5303   -0.8535    0.0000 C   0  0  0  0  0  0  0  0  0  0  0  0
    4.5303    0.8535    0.0000 C   0  0  0  0  0  0  0  0  0  0  0  0
    1.6498   -0.8249    0.0000 C   0  0  0  0  0  0  0  0  0  0  0  0
    5.2777   -0.4296    0.0000 C   0  0  0  0  0  0  0  0  0  0  0  0
    5.2777    0.4296    0.0000 C   0  0  0  0  0  0  0  0  0  0  0  0
  1  6  2  0  0  0  0
  2  7  2  0  0  0  0
  3  4  1  0  0  0  0
  3  6  1  0  0  0  0
  3  9  2  0  0  0  0
  4  7  1  0  0  0  0
  4 10  2  0  0  0  0
  5  6  1  0  0  0  0
  5  8  2  0  0  0  0
  5 11  1  0  0  0  0
  7  8  1  0  0  0  0
  9 12  1  0  0  0  0
 10 13  1  0  0  0  0
 12 13  2  0  0  0  0
M  END
>  <DRUGBANK_ID>
DB00170

>  <DRUG_GROUPS>
approved; nutraceutical

>  <GENERIC_NAME>
Menadione

>  <SYNONYMS>
2-Methyl-1,4-Naphthalenedione; 2-Methyl-1,4-naphthoquinone; Kayquinone; Menaphthone; Thyloquinone; Vitamin K 3; Vitamin K3

>  <BRANDS>
Kappaxin; Kayklot; Klottone; Kolklot; Panosine; Synkavite; Synkayvite

>  <CHEMICAL_FORMULA>
C11H8O2

>  <MOLECULAR_WEIGHT>
172.18

>  <EXACT_MASS>
172.0524295

>  <IUPAC_NAME>
2-methyl-1,4-dihydronaphthalene-1,4-dione

>  <INCHI_IDENTIFIER>
InChI=1S/C11H8O2/c1-7-6-10(12)8-4-2-3-5-9(8)11(7)13/h2-6H,1H3

>  <INCHI_KEY>
InChIKey=MJVAVZPDRWSRRC-UHFFFAOYSA-N

>  <SMILES>
CC1=CC(=O)C2=CC=CC=C2C1=O

>  <JCHEM_ACCEPTOR_COUNT>
2

>  <JCHEM_DONOR_COUNT>
0

>  <JCHEM_ACIDIC_PKA>
12.94

>  <JCHEM_BASIC_PKA>
-7.2

>  <JCHEM_PHYSIOLOGICAL_CHARGE>
0

>  <ALOGPS_LOGP>
1.91

>  <JCHEM_LOGP>
1.89

>  <ALOGPS_LOGS>
-2.5

>  <JCHEM_POLARIZABILITY>
17.64

>  <JCHEM_POLAR_SURFACE_AREA>
34.14

>  <JCHEM_REFRACTIVITY>
50.54

>  <JCHEM_ROTATABLE_BOND_COUNT>
0

>  <ALOGPS_SOLUBILITY>
5.04e-01 g/l

$$$$
171
  Mrv0541 02231214292D          

 31 33  0  0  1  0            999 V2000
    6.9922    1.8744    0.0000 P   0  0  2  0  0  0  0  0  0  0  0  0
    8.4135    2.0213    0.0000 P   0  0  2  0  0  0  0  0  0  0  0  0
    9.8349    2.1682    0.0000 P   0  0  0  0  0  0  0  0  0  0  0  0
    4.9010    0.4187    0.0000 O   0  0  0  0  0  0  0  0  0  0  0  0
    2.8071    0.8348    0.0000 O   0  0  0  0  0  0  0  0  0  0  0  0
    3.8647    2.2851    0.0000 O   0  0  0  0  0  0  0  0  0  0  0  0
    6.3238    1.3906    0.0000 O   0  0  0  0  0  0  0  0  0  0  0  0
    7.6604    2.3582    0.0000 O   0  0  0  0  0  0  0  0  0  0  0  0
    7.4759    1.2061    0.0000 O   0  0  0  0  0  0  0  0  0  0  0  0
    6.5084    2.5427    0.0000 O   0  0  0  0  0  0  0  0  0  0  0  0
    9.1667    1.6844    0.0000 O   0  0  0  0  0  0  0  0  0  0  0  0
    8.7504    2.7744    0.0000 O   0  0  0  0  0  0  0  0  0  0  0  0
    8.0766    1.2682    0.0000 O   0  0  0  0  0  0  0  0  0  0  0  0
   10.5032    2.6520    0.0000 O   0  0  0  0  0  0  0  0  0  0  0  0
   10.3187    1.5000    0.0000 O   0  0  0  0  0  0  0  0  0  0  0  0
    9.3511    2.8365    0.0000 O   0  0  0  0  0  0  0  0  0  0  0  0
    3.8597   -0.6191    0.0000 N   0  0  0  0  0  0  0  0  0  0  0  0
    3.8597   -1.9469    0.0000 N   0  0  0  0  0  0  0  0  0  0  0  0
    2.3645   -0.4580    0.0000 N   0  0  0  0  0  0  0  0  0  0  0  0
    1.6500   -1.6955    0.0000 N   0  0  0  0  0  0  0  0  0  0  0  0
    2.3645   -2.9330    0.0000 N   0  0  0  0  0  0  0  0  0  0  0  0
    3.6321    0.8334    0.0000 C   0  0  2  0  0  0  0  0  0  0  0  0
    4.1182    1.5000    0.0000 C   0  0  1  0  0  0  0  0  0  0  0  0
    4.1159    0.1652    0.0000 C   0  0  1  0  0  0  0  0  0  0  0  0
    4.9025    1.2437    0.0000 C   0  0  1  0  0  0  0  0  0  0  0  0
    5.5707    1.7275    0.0000 C   0  0  0  0  0  0  0  0  0  0  0  0
    3.0790   -0.8705    0.0000 C   0  0  0  0  0  0  0  0  0  0  0  0
    4.3411   -1.2830    0.0000 C   0  0  0  0  0  0  0  0  0  0  0  0
    3.0790   -1.6955    0.0000 C   0  0  0  0  0  0  0  0  0  0  0  0
    2.3645   -2.1080    0.0000 C   0  0  0  0  0  0  0  0  0  0  0  0
    1.6500   -0.8705    0.0000 C   0  0  0  0  0  0  0  0  0  0  0  0
  1  7  1  0  0  0  0
  1  8  1  0  0  0  0
  1  9  1  1  0  0  0
  1 10  2  0  0  0  0
  2  8  1  0  0  0  0
  2 11  1  0  0  0  0
  2 12  1  6  0  0  0
  2 13  2  0  0  0  0
  3 11  1  0  0  0  0
  3 14  1  0  0  0  0
  3 15  1  0  0  0  0
  3 16  2  0  0  0  0
  4 24  1  0  0  0  0
  4 25  1  0  0  0  0
 22  5  1  6  0  0  0
 23  6  1  6  0  0  0
  7 26  1  0  0  0  0
 24 17  1  1  0  0  0
 17 27  1  0  0  0  0
 17 28  1  0  0  0  0
 18 28  2  0  0  0  0
 18 29  1  0  0  0  0
 19 27  2  0  0  0  0
 19 31  1  0  0  0  0
 20 30  1  0  0  0  0
 20 31  2  0  0  0  0
 21 30  1  0  0  0  0
 22 23  1  0  0  0  0
 22 24  1  0  0  0  0
 23 25  1  0  0  0  0
 25 26  1  1  0  0  0
 27 29  1  0  0  0  0
 29 30  2  0  0  0  0
M  END
>  <DRUGBANK_ID>
DB00171

>  <DRUG_GROUPS>
approved; nutraceutical

>  <GENERIC_NAME>
Adenosine triphosphate

>  <SYNONYMS>
5'-ATP; Adenosine 5'-triphosphate; Adenosine 5'-triphosphoric acid; Adenosine-5'-triphosphate; Adenosine, 5'-(tetrahydrogen triphosphate); Adenylpyrophosphoric acid; ATP; Triphosphoric acid adenosine ester

>  <BRANDS>
Adephos; Adetol; Adynol; Atipi; Atriphos; Cardenosine; Fosfobion; Glucobasin; Myotriphos; Phosphobion; Striadyne; Triadenyl; Triphosphaden

>  <CHEMICAL_FORMULA>
C10H16N5O13P3

>  <MOLECULAR_WEIGHT>
507.181

>  <EXACT_MASS>
506.995745159

>  <IUPAC_NAME>
({[({[(2R,3S,4R,5R)-5-(6-amino-9H-purin-9-yl)-3,4-dihydroxyoxolan-2-yl]methoxy}(hydroxy)phosphoryl)oxy](hydroxy)phosphoryl}oxy)phosphonic acid

>  <INCHI_IDENTIFIER>
InChI=1S/C10H16N5O13P3/c11-8-5-9(13-2-12-8)15(3-14-5)10-7(17)6(16)4(26-10)1-25-30(21,22)28-31(23,24)27-29(18,19)20/h2-4,6-7,10,16-17H,1H2,(H,21,22)(H,23,24)(H2,11,12,13)(H2,18,19,20)/t4-,6-,7-,10-/m1/s1

>  <INCHI_KEY>
InChIKey=ZKHQWZAMYRWXGA-KQYNXXCUSA-N

>  <SMILES>
NC1=C2N=CN([C@@H]3O[C@H](CO[P@](O)(=O)O[P@](O)(=O)OP(O)(O)=O)[C@@H](O)[C@H]3O)C2=NC=N1

>  <JCHEM_ACCEPTOR_COUNT>
14

>  <JCHEM_DONOR_COUNT>
7

>  <JCHEM_ACIDIC_PKA>
0.9

>  <JCHEM_BASIC_PKA>
5

>  <JCHEM_PHYSIOLOGICAL_CHARGE>
-3

>  <ALOGPS_LOGP>
-0.84

>  <JCHEM_LOGP>
-6.2

>  <ALOGPS_LOGS>
-2

>  <JCHEM_POLARIZABILITY>
38.61

>  <JCHEM_POLAR_SURFACE_AREA>
279.13

>  <JCHEM_REFRACTIVITY>
95.81

>  <JCHEM_ROTATABLE_BOND_COUNT>
8

>  <ALOGPS_SOLUBILITY>
4.49e+00 g/l

$$$$
172
  Mrv0541 02231214292D          

  8  8  0  0  1  0            999 V2000
    4.3828    0.4358    0.0000 O   0  0  0  0  0  0  0  0  0  0  0  0
    3.9413   -0.9233    0.0000 O   0  0  0  0  0  0  0  0  0  0  0  0
    2.3176   -0.3463    0.0000 N   0  0  0  0  0  0  0  0  0  0  0  0
    2.9850    0.1387    0.0000 C   0  0  1  0  0  0  0  0  0  0  0  0
    2.7301    0.9233    0.0000 C   0  0  0  0  0  0  0  0  0  0  0  0
    1.9050    0.9233    0.0000 C   0  0  0  0  0  0  0  0  0  0  0  0
    1.6501    0.1387    0.0000 C   0  0  0  0  0  0  0  0  0  0  0  0
    3.7697   -0.1163    0.0000 C   0  0  0  0  0  0  0  0  0  0  0  0
  1  8  1  0  0  0  0
  2  8  2  0  0  0  0
  3  4  1  0  0  0  0
  3  7  1  0  0  0  0
  4  5  1  0  0  0  0
  4  8  1  1  0  0  0
  5  6  1  0  0  0  0
  6  7  1  0  0  0  0
M  END
>  <DRUGBANK_ID>
DB00172

>  <DRUG_GROUPS>
approved; nutraceutical

>  <GENERIC_NAME>
L-Proline

>  <SYNONYMS>
(-)-2-Pyrrolidinecarboxylic acid; (-)-Proline; (S)-2-Carboxypyrrolidine; (S)-2-Pyrrolidinecarboxylic acid; (S)-Proline; 2-Pyrrolidinecarboxylic acid

>  <CHEMICAL_FORMULA>
C5H9NO2

>  <MOLECULAR_WEIGHT>
115.1305

>  <EXACT_MASS>
115.063328537

>  <IUPAC_NAME>
(2S)-pyrrolidine-2-carboxylic acid

>  <INCHI_IDENTIFIER>
InChI=1S/C5H9NO2/c7-5(8)4-2-1-3-6-4/h4,6H,1-3H2,(H,7,8)/t4-/m0/s1

>  <INCHI_KEY>
InChIKey=ONIBWKKTOPOVIA-BYPYZUCNSA-N

>  <SMILES>
OC(=O)[C@@H]1CCCN1

>  <JCHEM_ACCEPTOR_COUNT>
3

>  <JCHEM_DONOR_COUNT>
2

>  <JCHEM_ACIDIC_PKA>
1.94

>  <JCHEM_BASIC_PKA>
11.33

>  <JCHEM_PHYSIOLOGICAL_CHARGE>
0

>  <ALOGPS_LOGP>
-2.7

>  <JCHEM_LOGP>
-2.6

>  <ALOGPS_LOGS>
0.5

>  <JCHEM_POLARIZABILITY>
11.5

>  <JCHEM_POLAR_SURFACE_AREA>
49.33

>  <JCHEM_REFRACTIVITY>
28.06

>  <JCHEM_ROTATABLE_BOND_COUNT>
1

>  <ALOGPS_SOLUBILITY>
3.65e+02 g/l

$$$$
173
  Mrv0541 02231214292D          

 10 11  0  0  0  0            999 V2000
    3.8596    0.1235    0.0000 N   0  0  0  0  0  0  0  0  0  0  0  0
    3.8596   -1.2043    0.0000 N   0  0  0  0  0  0  0  0  0  0  0  0
    2.3645   -1.3654    0.0000 N   0  0  0  0  0  0  0  0  0  0  0  0
    1.6500   -0.1279    0.0000 N   0  0  0  0  0  0  0  0  0  0  0  0
    2.3645    1.1096    0.0000 N   0  0  0  0  0  0  0  0  0  0  0  0
    3.0790   -0.1279    0.0000 C   0  0  0  0  0  0  0  0  0  0  0  0
    3.0790   -0.9529    0.0000 C   0  0  0  0  0  0  0  0  0  0  0  0
    2.3645    0.2846    0.0000 C   0  0  0  0  0  0  0  0  0  0  0  0
    4.3411   -0.5404    0.0000 C   0  0  0  0  0  0  0  0  0  0  0  0
    1.6500   -0.9529    0.0000 C   0  0  0  0  0  0  0  0  0  0  0  0
  1  6  1  0  0  0  0
  1  9  1  0  0  0  0
  2  7  1  0  0  0  0
  2  9  2  0  0  0  0
  3  7  2  0  0  0  0
  3 10  1  0  0  0  0
  4  8  1  0  0  0  0
  4 10  2  0  0  0  0
  5  8  1  0  0  0  0
  6  7  1  0  0  0  0
  6  8  2  0  0  0  0
M  END
>  <DRUGBANK_ID>
DB00173

>  <DRUG_GROUPS>
approved; nutraceutical

>  <GENERIC_NAME>
Adenine

>  <SYNONYMS>
1H-Purin-6-amine; 6-Aminopurine; Adenin; Adeninimine; Vitamin B4

>  <BRANDS>
Leuco-4; Pedatisectine B

>  <CHEMICAL_FORMULA>
C5H5N5

>  <MOLECULAR_WEIGHT>
135.1267

>  <EXACT_MASS>
135.054495185

>  <IUPAC_NAME>
7H-purin-6-amine

>  <INCHI_IDENTIFIER>
InChI=1S/C5H5N5/c6-4-3-5(9-1-7-3)10-2-8-4/h1-2H,(H3,6,7,8,9,10)

>  <INCHI_KEY>
InChIKey=GFFGJBXGBJISGV-UHFFFAOYSA-N

>  <SMILES>
NC1=C2NC=NC2=NC=N1

>  <JCHEM_ACCEPTOR_COUNT>
4

>  <JCHEM_DONOR_COUNT>
2

>  <JCHEM_ACIDIC_PKA>
10.29

>  <JCHEM_BASIC_PKA>
5.32

>  <JCHEM_PHYSIOLOGICAL_CHARGE>
0

>  <ALOGPS_LOGP>
-0.38

>  <JCHEM_LOGP>
-0.57

>  <ALOGPS_LOGS>
-1.1

>  <JCHEM_POLARIZABILITY>
12.29

>  <JCHEM_POLAR_SURFACE_AREA>
80.48

>  <JCHEM_REFRACTIVITY>
38.22

>  <JCHEM_ROTATABLE_BOND_COUNT>
0

>  <ALOGPS_SOLUBILITY>
1.15e+01 g/l

$$$$
174
  Mrv0541 02231214292D          

  9  8  0  0  1  0            999 V2000
    5.6655   -0.0784    0.0000 O   0  0  0  0  0  0  0  0  0  0  0  0
    4.9509    1.1592    0.0000 O   0  0  0  0  0  0  0  0  0  0  0  0
    2.8075   -0.9034    0.0000 O   0  0  0  0  0  0  0  0  0  0  0  0
    4.2365   -0.9034    0.0000 N   0  0  0  0  0  0  0  0  0  0  0  0
    2.0930    0.3341    0.0000 N   0  0  0  0  0  0  0  0  0  0  0  0
    4.2365   -0.0784    0.0000 C   0  0  1  0  0  0  0  0  0  0  0  0
    3.5220    0.3341    0.0000 C   0  0  0  0  0  0  0  0  0  0  0  0
    4.9509    0.3341    0.0000 C   0  0  0  0  0  0  0  0  0  0  0  0
    2.8075   -0.0784    0.0000 C   0  0  0  0  0  0  0  0  0  0  0  0
  1  8  1  0  0  0  0
  2  8  2  0  0  0  0
  3  9  2  0  0  0  0
  6  4  1  1  0  0  0
  5  9  1  0  0  0  0
  6  7  1  0  0  0  0
  6  8  1  0  0  0  0
  7  9  1  0  0  0  0
M  END
>  <DRUGBANK_ID>
DB00174

>  <DRUG_GROUPS>
approved; nutraceutical

>  <GENERIC_NAME>
L-Asparagine

>  <SYNONYMS>
(-)-Asparagine; (S)-2,4-Diamino-4-oxobutanoic acid; (S)-Asparagine; 2-Aminosuccinamic acid; a-Aminosuccinamic acid; Asn; Asparagine; Asparagine acid; Asparamide; Aspartamic acid; Aspartic acid amide; Aspartic acid b-amide; L-2,4-Diamino-4-oxobutanoic acid; L-Aspartamine; L-b-Asparagine

>  <BRANDS>
Agedoite; Altheine; Crystal VI

>  <CHEMICAL_FORMULA>
C4H8N2O3

>  <MOLECULAR_WEIGHT>
132.1179

>  <EXACT_MASS>
132.053492132

>  <IUPAC_NAME>
(2S)-2-amino-3-carbamoylpropanoic acid

>  <INCHI_IDENTIFIER>
InChI=1S/C4H8N2O3/c5-2(4(8)9)1-3(6)7/h2H,1,5H2,(H2,6,7)(H,8,9)/t2-/m0/s1

>  <INCHI_KEY>
InChIKey=DCXYFEDJOCDNAF-REOHCLBHSA-N

>  <SMILES>
N[C@@H](CC(N)=O)C(O)=O

>  <JCHEM_ACCEPTOR_COUNT>
4

>  <JCHEM_DONOR_COUNT>
3

>  <JCHEM_ACIDIC_PKA>
2

>  <JCHEM_BASIC_PKA>
8.43

>  <JCHEM_PHYSIOLOGICAL_CHARGE>
0

>  <ALOGPS_LOGP>
-3.4

>  <JCHEM_LOGP>
-4.3

>  <ALOGPS_LOGS>
0.1

>  <JCHEM_POLARIZABILITY>
11.68

>  <JCHEM_POLAR_SURFACE_AREA>
106.41

>  <JCHEM_REFRACTIVITY>
28.35

>  <JCHEM_ROTATABLE_BOND_COUNT>
3

>  <ALOGPS_SOLUBILITY>
1.68e+02 g/l

$$$$
175
  Mrv0541 02231214292D          

 31 32  0  0  1  0            999 V2000
    3.0790    0.8556    0.0000 O   0  0  0  0  0  0  0  0  0  0  0  0
    1.6500    3.3306    0.0000 O   0  0  0  0  0  0  0  0  0  0  0  0
    4.5023   -0.8228    0.0000 O   0  0  0  0  0  0  0  0  0  0  0  0
    1.6500    0.8556    0.0000 O   0  0  0  0  0  0  0  0  0  0  0  0
    5.2025   -2.0685    0.0000 O   0  0  0  0  0  0  0  0  0  0  0  0
    7.3314   -3.3307    0.0000 O   0  0  0  0  0  0  0  0  0  0  0  0
    5.9026   -3.3142    0.0000 O   0  0  0  0  0  0  0  0  0  0  0  0
    3.7935    2.0931    0.0000 C   0  0  1  0  0  0  0  0  0  0  0  0
    4.5309    1.6521    0.0000 C   0  0  2  0  0  0  0  0  0  0  0  0
    3.0790    1.6806    0.0000 C   0  0  2  0  0  0  0  0  0  0  0  0
    5.2785    2.0760    0.0000 C   0  0  2  0  0  0  0  0  0  0  0  0
    4.5214    0.8271    0.0000 C   0  0  0  0  0  0  0  0  0  0  0  0
    3.7935    2.9181    0.0000 C   0  0  0  0  0  0  0  0  0  0  0  0
    2.3645    2.0931    0.0000 C   0  0  0  0  0  0  0  0  0  0  0  0
    2.3645    2.9181    0.0000 C   0  0  1  0  0  0  0  0  0  0  0  0
    5.2785    2.9354    0.0000 C   0  0  0  0  0  0  0  0  0  0  0  0
    5.2310    0.4064    0.0000 C   0  0  0  0  0  0  0  0  0  0  0  0
    3.0790    3.3306    0.0000 C   0  0  0  0  0  0  0  0  0  0  0  0
    4.5309    3.3593    0.0000 C   0  0  0  0  0  0  0  0  0  0  0  0
    5.9913    1.6607    0.0000 C   0  0  0  0  0  0  0  0  0  0  0  0
    5.2215   -0.4186    0.0000 C   0  0  2  0  0  0  0  0  0  0  0  0
    5.9312   -0.8394    0.0000 C   0  0  0  0  0  0  0  0  0  0  0  0
    2.3645    0.4431    0.0000 C   0  0  0  0  0  0  0  0  0  0  0  0
    5.9216   -1.6643    0.0000 C   0  0  2  0  0  0  0  0  0  0  0  0
    2.3645   -0.3819    0.0000 C   0  0  2  0  0  0  0  0  0  0  0  0
    6.6313   -2.0850    0.0000 C   0  0  0  0  0  0  0  0  0  0  0  0
    1.6500   -0.7944    0.0000 C   0  0  0  0  0  0  0  0  0  0  0  0
    3.0790   -0.7944    0.0000 C   0  0  0  0  0  0  0  0  0  0  0  0
    1.6500   -1.6194    0.0000 C   0  0  0  0  0  0  0  0  0  0  0  0
    6.6217   -2.9100    0.0000 C   0  0  0  0  0  0  0  0  0  0  0  0
    3.7883    1.4332    0.0000 H   0  0  0  0  0  0  0  0  0  0  0  0
 10  1  1  1  0  0  0
  1 23  1  0  0  0  0
 15  2  1  6  0  0  0
 21  3  1  6  0  0  0
  4 23  2  0  0  0  0
 24  5  1  6  0  0  0
  6 30  1  0  0  0  0
  7 30  2  0  0  0  0
  8  9  1  0  0  0  0
  8 10  1  0  0  0  0
  8 13  1  0  0  0  0
  8 31  1  6  0  0  0
  9 11  1  0  0  0  0
  9 12  1  6  0  0  0
 10 14  1  0  0  0  0
 11 16  1  0  0  0  0
 11 20  1  6  0  0  0
 12 17  1  0  0  0  0
 13 18  2  0  0  0  0
 13 19  1  0  0  0  0
 14 15  1  0  0  0  0
 15 18  1  0  0  0  0
 16 19  2  0  0  0  0
 17 21  1  0  0  0  0
 21 22  1  0  0  0  0
 22 24  1  0  0  0  0
 23 25  1  0  0  0  0
 24 26  1  0  0  0  0
 25 27  1  0  0  0  0
 25 28  1  1  0  0  0
 26 30  1  0  0  0  0
 27 29  1  0  0  0  0
M  END
>  <DRUGBANK_ID>
DB00175

>  <DRUG_GROUPS>
approved

>  <GENERIC_NAME>
Pravastatin

>  <SYNONYMS>
Pravastatin Sodium; Pravastatina [Spanish]; Pravastatine [French]; Pravastatinum [Latin]

>  <BRANDS>
Elisor; Lipostat; Mevalotin; Mevinolin; Oliprevin; Pravachol; Pravaselect; Selectin; Selipran; Vasten

>  <CHEMICAL_FORMULA>
C23H36O7

>  <MOLECULAR_WEIGHT>
424.5277

>  <EXACT_MASS>
424.246103506

>  <IUPAC_NAME>
(3R,5R)-7-[(1S,2S,6S,8S,8aR)-6-hydroxy-2-methyl-8-{[(2S)-2-methylbutanoyl]oxy}-1,2,6,7,8,8a-hexahydronaphthalen-1-yl]-3,5-dihydroxyheptanoic acid

>  <INCHI_IDENTIFIER>
InChI=1S/C23H36O7/c1-4-13(2)23(29)30-20-11-17(25)9-15-6-5-14(3)19(22(15)20)8-7-16(24)10-18(26)12-21(27)28/h5-6,9,13-14,16-20,22,24-26H,4,7-8,10-12H2,1-3H3,(H,27,28)/t13-,14-,16+,17+,18+,19-,20-,22-/m0/s1

>  <INCHI_KEY>
InChIKey=TUZYXOIXSAXUGO-PZAWKZKUSA-N

>  <SMILES>
[H][C@]12[C@H](C[C@H](O)C=C1C=C[C@H](C)[C@@H]2CC[C@@H](O)C[C@@H](O)CC(O)=O)OC(=O)[C@@H](C)CC

>  <JCHEM_ACCEPTOR_COUNT>
6

>  <JCHEM_DONOR_COUNT>
4

>  <JCHEM_ACIDIC_PKA>
4.21

>  <JCHEM_BASIC_PKA>
-2.7

>  <JCHEM_PHYSIOLOGICAL_CHARGE>
-1

>  <ALOGPS_LOGP>
2.23

>  <JCHEM_LOGP>
1.65

>  <ALOGPS_LOGS>
-3.2

>  <JCHEM_POLARIZABILITY>
46.56

>  <JCHEM_POLAR_SURFACE_AREA>
124.29

>  <JCHEM_REFRACTIVITY>
113.6

>  <JCHEM_ROTATABLE_BOND_COUNT>
11

>  <ALOGPS_SOLUBILITY>
2.42e-01 g/l

$$$$
176
  Mrv0541 02231214292D          

 22 22  0  0  0  0            999 V2000
    3.4115    3.0938    0.0000 F   0  0  0  0  0  0  0  0  0  0  0  0
    5.0615    3.0938    0.0000 F   0  0  0  0  0  0  0  0  0  0  0  0
    4.2365    3.9188    0.0000 F   0  0  0  0  0  0  0  0  0  0  0  0
    6.3799   -3.0938    0.0000 O   0  0  0  0  0  0  0  0  0  0  0  0
    3.5220   -1.4438    0.0000 O   0  0  0  0  0  0  0  0  0  0  0  0
    3.5220   -0.6188    0.0000 N   0  0  0  0  0  0  0  0  0  0  0  0
    2.0930   -3.0938    0.0000 N   0  0  0  0  0  0  0  0  0  0  0  0
    4.9509   -1.4438    0.0000 C   0  0  0  0  0  0  0  0  0  0  0  0
    4.9509   -0.6188    0.0000 C   0  0  0  0  0  0  0  0  0  0  0  0
    5.6655   -1.8563    0.0000 C   0  0  0  0  0  0  0  0  0  0  0  0
    4.2365   -0.2063    0.0000 C   0  0  0  0  0  0  0  0  0  0  0  0
    4.2365    0.6188    0.0000 C   0  0  0  0  0  0  0  0  0  0  0  0
    5.6655   -2.6813    0.0000 C   0  0  0  0  0  0  0  0  0  0  0  0
    3.5220    1.0313    0.0000 C   0  0  0  0  0  0  0  0  0  0  0  0
    4.9509    1.0313    0.0000 C   0  0  0  0  0  0  0  0  0  0  0  0
    4.2365    2.2688    0.0000 C   0  0  0  0  0  0  0  0  0  0  0  0
    3.5220    1.8563    0.0000 C   0  0  0  0  0  0  0  0  0  0  0  0
    4.9509    1.8563    0.0000 C   0  0  0  0  0  0  0  0  0  0  0  0
    4.2365    3.0938    0.0000 C   0  0  0  0  0  0  0  0  0  0  0  0
    2.8075   -1.8563    0.0000 C   0  0  0  0  0  0  0  0  0  0  0  0
    6.3799   -3.9188    0.0000 C   0  0  0  0  0  0  0  0  0  0  0  0
    2.8075   -2.6813    0.0000 C   0  0  0  0  0  0  0  0  0  0  0  0
  1 19  1  0  0  0  0
  2 19  1  0  0  0  0
  3 19  1  0  0  0  0
  4 13  1  0  0  0  0
  4 21  1  0  0  0  0
  5  6  1  0  0  0  0
  5 20  1  0  0  0  0
  6 11  2  3  0  0  0
  7 22  1  0  0  0  0
  8  9  1  0  0  0  0
  8 10  1  0  0  0  0
  9 11  1  0  0  0  0
 10 13  1  0  0  0  0
 11 12  1  0  0  0  0
 12 14  2  0  0  0  0
 12 15  1  0  0  0  0
 14 17  1  0  0  0  0
 15 18  2  0  0  0  0
 16 17  2  0  0  0  0
 16 18  1  0  0  0  0
 16 19  1  0  0  0  0
 20 22  1  0  0  0  0
M  END
>  <DRUGBANK_ID>
DB00176

>  <DRUG_GROUPS>
approved; investigational

>  <GENERIC_NAME>
Fluvoxamine

>  <SYNONYMS>
Fluvoxamina [INN-Spanish]; Fluvoxamine maleate; fluvoxamine-CR; Fluvoxaminum [INN-Latin]

>  <BRANDS>
Dumirox; Dumyrox; Faverin; Fevarin; Floxyfral; Luvox; Maveral

>  <CHEMICAL_FORMULA>
C15H21F3N2O2

>  <MOLECULAR_WEIGHT>
318.3346

>  <EXACT_MASS>
318.155512541

>  <IUPAC_NAME>
(2-aminoethoxy)({5-methoxy-1-[4-(trifluoromethyl)phenyl]pentylidene})amine

>  <INCHI_IDENTIFIER>
InChI=1S/C15H21F3N2O2/c1-21-10-3-2-4-14(20-22-11-9-19)12-5-7-13(8-6-12)15(16,17)18/h5-8H,2-4,9-11,19H2,1H3/b20-14+

>  <INCHI_KEY>
InChIKey=CJOFXWAVKWHTFT-XSFVSMFZSA-N

>  <SMILES>
COCCCCC(=NOCCN)C1=CC=C(C=C1)C(F)(F)F

>  <JCHEM_ACCEPTOR_COUNT>
4

>  <JCHEM_DONOR_COUNT>
1

>  <JCHEM_BASIC_PKA>
9.16

>  <JCHEM_PHYSIOLOGICAL_CHARGE>
1

>  <ALOGPS_LOGP>
2.89

>  <JCHEM_LOGP>
2.8

>  <ALOGPS_LOGS>
-4.6

>  <JCHEM_POLARIZABILITY>
32.44

>  <JCHEM_POLAR_SURFACE_AREA>
56.84

>  <JCHEM_REFRACTIVITY>
79.2

>  <JCHEM_ROTATABLE_BOND_COUNT>
10

>  <ALOGPS_SOLUBILITY>
7.34e-03 g/l

$$$$
177
  Mrv0541 02231214292D          

 32 34  0  0  1  0            999 V2000
    2.0930    1.2209    0.0000 O   0  0  0  0  0  0  0  0  0  0  0  0
    4.9509   -0.4292    0.0000 O   0  0  0  0  0  0  0  0  0  0  0  0
    2.8075   -0.0167    0.0000 O   0  0  0  0  0  0  0  0  0  0  0  0
    4.2365    0.8084    0.0000 N   0  0  0  0  0  0  0  0  0  0  0  0
    7.8559    1.2933    0.0000 N   0  0  0  0  0  0  0  0  0  0  0  0
    9.1909    1.2933    0.0000 N   0  0  0  0  0  0  0  0  0  0  0  0
    8.1109    2.0779    0.0000 N   0  0  0  0  0  0  0  0  0  0  0  0
    8.9359    2.0779    0.0000 N   0  0  0  0  0  0  0  0  0  0  0  0
    3.5220    1.2209    0.0000 C   0  0  1  0  0  0  0  0  0  0  0  0
    3.5220    2.0459    0.0000 C   0  0  0  0  0  0  0  0  0  0  0  0
    4.9509    1.2209    0.0000 C   0  0  0  0  0  0  0  0  0  0  0  0
    4.2365   -0.0167    0.0000 C   0  0  0  0  0  0  0  0  0  0  0  0
    2.8075    2.4584    0.0000 C   0  0  0  0  0  0  0  0  0  0  0  0
    4.2365    2.4584    0.0000 C   0  0  0  0  0  0  0  0  0  0  0  0
    3.5220   -0.4292    0.0000 C   0  0  0  0  0  0  0  0  0  0  0  0
    2.8075    0.8084    0.0000 C   0  0  0  0  0  0  0  0  0  0  0  0
    5.6655    0.8084    0.0000 C   0  0  0  0  0  0  0  0  0  0  0  0
    3.5220   -1.2542    0.0000 C   0  0  0  0  0  0  0  0  0  0  0  0
    2.8075   -1.6667    0.0000 C   0  0  0  0  0  0  0  0  0  0  0  0
    6.3799    1.2209    0.0000 C   0  0  0  0  0  0  0  0  0  0  0  0
    5.6655   -0.0167    0.0000 C   0  0  0  0  0  0  0  0  0  0  0  0
    7.0944   -0.0167    0.0000 C   0  0  0  0  0  0  0  0  0  0  0  0
    7.0944    0.8084    0.0000 C   0  0  0  0  0  0  0  0  0  0  0  0
    6.3799   -0.4292    0.0000 C   0  0  0  0  0  0  0  0  0  0  0  0
    2.8075   -2.4917    0.0000 C   0  0  0  0  0  0  0  0  0  0  0  0
    7.8089   -0.4292    0.0000 C   0  0  0  0  0  0  0  0  0  0  0  0
    8.5234   -0.0167    0.0000 C   0  0  0  0  0  0  0  0  0  0  0  0
    7.8089   -1.2542    0.0000 C   0  0  0  0  0  0  0  0  0  0  0  0
    9.2379   -0.4292    0.0000 C   0  0  0  0  0  0  0  0  0  0  0  0
    8.5234   -1.6667    0.0000 C   0  0  0  0  0  0  0  0  0  0  0  0
    8.5234    0.8084    0.0000 C   0  0  0  0  0  0  0  0  0  0  0  0
    9.2379   -1.2542    0.0000 C   0  0  0  0  0  0  0  0  0  0  0  0
  1 16  1  0  0  0  0
  2 12  2  0  0  0  0
  3 16  2  0  0  0  0
  9  4  1  6  0  0  0
  4 11  1  0  0  0  0
  4 12  1  0  0  0  0
  5  7  1  0  0  0  0
  5 31  2  0  0  0  0
  6  8  2  0  0  0  0
  6 31  1  0  0  0  0
  7  8  1  0  0  0  0
  9 10  1  0  0  0  0
  9 16  1  0  0  0  0
 10 13  1  0  0  0  0
 10 14  1  0  0  0  0
 11 17  1  0  0  0  0
 12 15  1  0  0  0  0
 15 18  1  0  0  0  0
 17 20  2  0  0  0  0
 17 21  1  0  0  0  0
 18 19  1  0  0  0  0
 19 25  1  0  0  0  0
 20 23  1  0  0  0  0
 21 24  2  0  0  0  0
 22 23  2  0  0  0  0
 22 24  1  0  0  0  0
 22 26  1  0  0  0  0
 26 27  1  0  0  0  0
 26 28  2  0  0  0  0
 27 29  2  0  0  0  0
 27 31  1  0  0  0  0
 28 30  1  0  0  0  0
 29 32  1  0  0  0  0
 30 32  2  0  0  0  0
M  END
>  <DRUGBANK_ID>
DB00177

>  <DRUG_GROUPS>
approved; investigational

>  <GENERIC_NAME>
Valsartan

>  <BRANDS>
Diovan; Valsarran

>  <CHEMICAL_FORMULA>
C24H29N5O3

>  <MOLECULAR_WEIGHT>
435.5188

>  <EXACT_MASS>
435.227039819

>  <IUPAC_NAME>
(2S)-3-methyl-2-[N-({4-[2-(2H-1,2,3,4-tetrazol-5-yl)phenyl]phenyl}methyl)pentanamido]butanoic acid

>  <INCHI_IDENTIFIER>
InChI=1S/C24H29N5O3/c1-4-5-10-21(30)29(22(16(2)3)24(31)32)15-17-11-13-18(14-12-17)19-8-6-7-9-20(19)23-25-27-28-26-23/h6-9,11-14,16,22H,4-5,10,15H2,1-3H3,(H,31,32)(H,25,26,27,28)/t22-/m0/s1

>  <INCHI_KEY>
InChIKey=ACWBQPMHZXGDFX-QFIPXVFZSA-N

>  <SMILES>
CCCCC(=O)N(CC1=CC=C(C=C1)C1=CC=CC=C1C1=NNN=N1)[C@@H](C(C)C)C(O)=O

>  <JCHEM_ACCEPTOR_COUNT>
6

>  <JCHEM_DONOR_COUNT>
2

>  <JCHEM_ACIDIC_PKA>
4.37

>  <JCHEM_BASIC_PKA>
-0.11

>  <JCHEM_PHYSIOLOGICAL_CHARGE>
-1

>  <ALOGPS_LOGP>
3.68

>  <JCHEM_LOGP>
5.27

>  <ALOGPS_LOGS>
-4.3

>  <JCHEM_POLARIZABILITY>
47.27

>  <JCHEM_POLAR_SURFACE_AREA>
112.07

>  <JCHEM_REFRACTIVITY>
134.77

>  <JCHEM_ROTATABLE_BOND_COUNT>
10

>  <ALOGPS_SOLUBILITY>
2.34e-02 g/l

$$$$
178
  Mrv0541 02231214292D          

 32 34  0  0  1  0            999 V2000
    2.8221   -1.1484    0.0000 O   0  0  0  0  0  0  0  0  0  0  0  0
    2.1616   -3.4866    0.0000 O   0  0  0  0  0  0  0  0  0  0  0  0
    2.1616   -2.0576    0.0000 O   0  0  0  0  0  0  0  0  0  0  0  0
    4.7754    2.0888    0.0000 O   0  0  0  0  0  0  0  0  0  0  0  0
    3.4163    1.6472    0.0000 O   0  0  0  0  0  0  0  0  0  0  0  0
    3.8841   -2.1046    0.0000 N   0  0  0  0  0  0  0  0  0  0  0  0
    3.9263    0.0779    0.0000 N   0  0  0  0  0  0  0  0  0  0  0  0
    4.6688   -3.1846    0.0000 C   0  0  2  0  0  0  0  0  0  0  0  0
    4.6688   -2.3595    0.0000 C   0  0  2  0  0  0  0  0  0  0  0  0
    3.8841   -3.4395    0.0000 C   0  0  0  0  0  0  0  0  0  0  0  0
    5.4495   -3.4360    0.0000 C   0  0  0  0  0  0  0  0  0  0  0  0
    5.4495   -2.1082    0.0000 C   0  0  0  0  0  0  0  0  0  0  0  0
    3.3992   -2.7721    0.0000 C   0  0  1  0  0  0  0  0  0  0  0  0
    5.9310   -2.7721    0.0000 C   0  0  0  0  0  0  0  0  0  0  0  0
    3.6292   -1.3199    0.0000 C   0  0  0  0  0  0  0  0  0  0  0  0
    2.5741   -2.7721    0.0000 C   0  0  0  0  0  0  0  0  0  0  0  0
    4.1812   -0.7068    0.0000 C   0  0  2  0  0  0  0  0  0  0  0  0
    4.9882   -0.8783    0.0000 C   0  0  0  0  0  0  0  0  0  0  0  0
    4.4783    0.6910    0.0000 C   0  0  1  0  0  0  0  0  0  0  0  0
    5.2854    0.5194    0.0000 C   0  0  0  0  0  0  0  0  0  0  0  0
    4.2234    1.4757    0.0000 C   0  0  0  0  0  0  0  0  0  0  0  0
    5.8374    1.1326    0.0000 C   0  0  0  0  0  0  0  0  0  0  0  0
    6.6444    0.9610    0.0000 C   0  0  0  0  0  0  0  0  0  0  0  0
    6.8994    0.1764    0.0000 C   0  0  0  0  0  0  0  0  0  0  0  0
    7.1965    1.5742    0.0000 C   0  0  0  0  0  0  0  0  0  0  0  0
    4.5205    2.8735    0.0000 C   0  0  0  0  0  0  0  0  0  0  0  0
    7.7064    0.0049    0.0000 C   0  0  0  0  0  0  0  0  0  0  0  0
    8.0035    1.4027    0.0000 C   0  0  0  0  0  0  0  0  0  0  0  0
    5.0725    3.4866    0.0000 C   0  0  0  0  0  0  0  0  0  0  0  0
    8.2584    0.6180    0.0000 C   0  0  0  0  0  0  0  0  0  0  0  0
    4.6697   -3.8446    0.0000 H   0  0  0  0  0  0  0  0  0  0  0  0
    4.6697   -1.6995    0.0000 H   0  0  0  0  0  0  0  0  0  0  0  0
  1 15  2  0  0  0  0
  2 16  1  0  0  0  0
  3 16  2  0  0  0  0
  4 21  1  0  0  0  0
  4 26  1  0  0  0  0
  5 21  2  0  0  0  0
  6  9  1  0  0  0  0
  6 13  1  0  0  0  0
  6 15  1  0  0  0  0
 17  7  1  1  0  0  0
 19  7  1  6  0  0  0
  8  9  1  0  0  0  0
  8 10  1  0  0  0  0
  8 11  1  0  0  0  0
  8 31  1  6  0  0  0
  9 12  1  0  0  0  0
  9 32  1  6  0  0  0
 10 13  1  0  0  0  0
 11 14  1  0  0  0  0
 12 14  1  0  0  0  0
 13 16  1  1  0  0  0
 15 17  1  0  0  0  0
 17 18  1  0  0  0  0
 19 20  1  0  0  0  0
 19 21  1  0  0  0  0
 20 22  1  0  0  0  0
 22 23  1  0  0  0  0
 23 24  2  0  0  0  0
 23 25  1  0  0  0  0
 24 27  1  0  0  0  0
 25 28  2  0  0  0  0
 26 29  1  0  0  0  0
 27 30  2  0  0  0  0
 28 30  1  0  0  0  0
M  END
>  <DRUGBANK_ID>
DB00178

>  <DRUG_GROUPS>
approved

>  <GENERIC_NAME>
Ramipril

>  <SYNONYMS>
Ramiprilum [Latin]

>  <BRANDS>
Acovil; Altace; Carasel; Cardace; Delix; Hypren; Hytren; Lostapres; Pramace; Quark; Ramace; Triatec; Tritace; Vesdil

>  <CHEMICAL_FORMULA>
C23H32N2O5

>  <MOLECULAR_WEIGHT>
416.5106

>  <EXACT_MASS>
416.231122144

>  <IUPAC_NAME>
(2S,3aS,6aS)-1-[(2S)-2-{[(2S)-1-ethoxy-1-oxo-4-phenylbutan-2-yl]amino}propanoyl]-octahydrocyclopenta[b]pyrrole-2-carboxylic acid

>  <INCHI_IDENTIFIER>
InChI=1S/C23H32N2O5/c1-3-30-23(29)18(13-12-16-8-5-4-6-9-16)24-15(2)21(26)25-19-11-7-10-17(19)14-20(25)22(27)28/h4-6,8-9,15,17-20,24H,3,7,10-14H2,1-2H3,(H,27,28)/t15-,17-,18-,19-,20-/m0/s1

>  <INCHI_KEY>
InChIKey=HDACQVRGBOVJII-JBDAPHQKSA-N

>  <SMILES>
[H][C@@]12CCC[C@]1([H])N([C@@H](C2)C(O)=O)C(=O)[C@H](C)N[C@@H](CCC1=CC=CC=C1)C(=O)OCC

>  <JCHEM_ACCEPTOR_COUNT>
5

>  <JCHEM_DONOR_COUNT>
2

>  <JCHEM_ACIDIC_PKA>
3.75

>  <JCHEM_BASIC_PKA>
5.2

>  <JCHEM_PHYSIOLOGICAL_CHARGE>
-1

>  <ALOGPS_LOGP>
0.92

>  <JCHEM_LOGP>
1.47

>  <ALOGPS_LOGS>
-4

>  <JCHEM_POLARIZABILITY>
44.78

>  <JCHEM_POLAR_SURFACE_AREA>
95.94

>  <JCHEM_REFRACTIVITY>
111.19

>  <JCHEM_ROTATABLE_BOND_COUNT>
10

>  <ALOGPS_SOLUBILITY>
3.90e-02 g/l

$$$$
179
  Mrv0541 02231214302D          

 22 23  0  0  1  0            999 V2000
    7.0944   -3.5063    0.0000 O   0  0  0  0  0  0  0  0  0  0  0  0
    3.5220    3.5063    0.0000 O   0  0  0  0  0  0  0  0  0  0  0  0
    8.5234   -2.6813    0.0000 O   0  0  0  0  0  0  0  0  0  0  0  0
    2.0930    2.6813    0.0000 O   0  0  0  0  0  0  0  0  0  0  0  0
    5.6655   -0.2063    0.0000 C   0  0  2  0  0  0  0  0  0  0  0  0
    4.9509    0.2063    0.0000 C   0  0  1  0  0  0  0  0  0  0  0  0
    5.6655   -1.0313    0.0000 C   0  0  0  0  0  0  0  0  0  0  0  0
    4.9509    1.0313    0.0000 C   0  0  0  0  0  0  0  0  0  0  0  0
    6.3799    0.2063    0.0000 C   0  0  0  0  0  0  0  0  0  0  0  0
    4.2365   -0.2063    0.0000 C   0  0  0  0  0  0  0  0  0  0  0  0
    6.3799   -1.4438    0.0000 C   0  0  0  0  0  0  0  0  0  0  0  0
    4.2365    1.4438    0.0000 C   0  0  0  0  0  0  0  0  0  0  0  0
    6.3799   -2.2688    0.0000 C   0  0  0  0  0  0  0  0  0  0  0  0
    4.2365    2.2688    0.0000 C   0  0  0  0  0  0  0  0  0  0  0  0
    7.0944   -1.0313    0.0000 C   0  0  0  0  0  0  0  0  0  0  0  0
    3.5220    1.0313    0.0000 C   0  0  0  0  0  0  0  0  0  0  0  0
    7.0944   -2.6813    0.0000 C   0  0  0  0  0  0  0  0  0  0  0  0
    3.5220    2.6813    0.0000 C   0  0  0  0  0  0  0  0  0  0  0  0
    7.8089   -1.4438    0.0000 C   0  0  0  0  0  0  0  0  0  0  0  0
    2.8075    1.4438    0.0000 C   0  0  0  0  0  0  0  0  0  0  0  0
    7.8089   -2.2688    0.0000 C   0  0  0  0  0  0  0  0  0  0  0  0
    2.8075    2.2688    0.0000 C   0  0  0  0  0  0  0  0  0  0  0  0
  1 17  1  0  0  0  0
  2 18  1  0  0  0  0
  3 21  1  0  0  0  0
  4 22  1  0  0  0  0
  5  6  1  0  0  0  0
  5  7  1  0  0  0  0
  5  9  1  1  0  0  0
  6  8  1  0  0  0  0
  6 10  1  6  0  0  0
  7 11  1  0  0  0  0
  8 12  1  0  0  0  0
 11 13  2  0  0  0  0
 11 15  1  0  0  0  0
 12 14  2  0  0  0  0
 12 16  1  0  0  0  0
 13 17  1  0  0  0  0
 14 18  1  0  0  0  0
 15 19  2  0  0  0  0
 16 20  2  0  0  0  0
 17 21  2  0  0  0  0
 18 22  2  0  0  0  0
 19 21  1  0  0  0  0
 20 22  1  0  0  0  0
M  END
>  <DRUGBANK_ID>
DB00179

>  <DRUG_GROUPS>
approved

>  <GENERIC_NAME>
Masoprocol

>  <SYNONYMS>
Dihydronorguaiaretic acid; Masoprocolum [INN-Latin]; meso-NDGA; meso-Nordihydroguaiaretic acid; NDGA; Nordihydroguaiaretic acid; Nordihydroguairaretic acid

>  <BRANDS>
Actinex

>  <CHEMICAL_FORMULA>
C18H22O4

>  <MOLECULAR_WEIGHT>
302.3649

>  <EXACT_MASS>
302.151809192

>  <IUPAC_NAME>
4-[(2S,3R)-3-[(3,4-dihydroxyphenyl)methyl]-2-methylbutyl]benzene-1,2-diol

>  <INCHI_IDENTIFIER>
InChI=1S/C18H22O4/c1-11(7-13-3-5-15(19)17(21)9-13)12(2)8-14-4-6-16(20)18(22)10-14/h3-6,9-12,19-22H,7-8H2,1-2H3/t11-,12+

>  <INCHI_KEY>
InChIKey=HCZKYJDFEPMADG-TXEJJXNPSA-N

>  <SMILES>
C[C@@H](CC1=CC(O)=C(O)C=C1)[C@H](C)CC1=CC(O)=C(O)C=C1

>  <JCHEM_ACCEPTOR_COUNT>
4

>  <JCHEM_DONOR_COUNT>
4

>  <JCHEM_ACIDIC_PKA>
9.21

>  <JCHEM_BASIC_PKA>
-6.3

>  <JCHEM_PHYSIOLOGICAL_CHARGE>
0

>  <ALOGPS_LOGP>
3.44

>  <JCHEM_LOGP>
4.76

>  <ALOGPS_LOGS>
-4.3

>  <JCHEM_POLARIZABILITY>
33.63

>  <JCHEM_POLAR_SURFACE_AREA>
80.92

>  <JCHEM_REFRACTIVITY>
86.62

>  <JCHEM_ROTATABLE_BOND_COUNT>
5

>  <ALOGPS_SOLUBILITY>
1.36e-02 g/l

$$$$
82153
  Mrv0541 02231214302D          

 35 39  0  0  1  0            999 V2000
    2.4287   -0.6672    0.0000 F   0  0  0  0  0  0  0  0  0  0  0  0
    7.4742   -0.8731    0.0000 O   0  0  0  0  0  0  0  0  0  0  0  0
    6.9362   -2.0786    0.0000 O   0  0  0  0  0  0  0  0  0  0  0  0
    5.3411    1.8277    0.0000 O   0  0  0  0  0  0  0  0  0  0  0  0
    7.2460    0.5198    0.0000 O   0  0  0  0  0  0  0  0  0  0  0  0
    8.7528   -0.1526    0.0000 O   0  0  0  0  0  0  0  0  0  0  0  0
    1.6500    2.3594    0.0000 O   0  0  0  0  0  0  0  0  0  0  0  0
    6.0556   -0.2347    0.0000 C   0  0  1  0  0  0  0  0  0  0  0  0
    5.3411   -0.6472    0.0000 C   0  0  2  0  0  0  0  0  0  0  0  0
    4.6266   -0.2347    0.0000 C   0  0  1  0  0  0  0  0  0  0  0  0
    6.6637   -0.7851    0.0000 C   0  0  1  0  0  0  0  0  0  0  0  0
    4.6266    0.5903    0.0000 C   0  0  2  0  0  0  0  0  0  0  0  0
    6.3294   -1.5340    0.0000 C   0  0  1  0  0  0  0  0  0  0  0  0
    5.5137   -1.4491    0.0000 C   0  0  0  0  0  0  0  0  0  0  0  0
    6.0556    0.5903    0.0000 C   0  0  0  0  0  0  0  0  0  0  0  0
    5.3411    1.0027    0.0000 C   0  0  2  0  0  0  0  0  0  0  0  0
    3.8891    1.0314    0.0000 C   0  0  1  0  0  0  0  0  0  0  0  0
    3.8891   -0.6759    0.0000 C   0  0  0  0  0  0  0  0  0  0  0  0
    6.7701    0.1778    0.0000 C   0  0  0  0  0  0  0  0  0  0  0  0
    3.1416   -0.2520    0.0000 C   0  0  1  0  0  0  0  0  0  0  0  0
    7.6423   -1.6709    0.0000 C   0  0  0  0  0  0  0  0  0  0  0  0
    7.3315   -0.3007    0.0000 C   0  0  0  0  0  0  0  0  0  0  0  0
    3.1416    0.6075    0.0000 C   0  0  0  0  0  0  0  0  0  0  0  0
    4.6067    1.4383    0.0000 C   0  0  0  0  0  0  0  0  0  0  0  0
    3.9098    1.9263    0.0000 C   0  0  0  0  0  0  0  0  0  0  0  0
    8.0849   -0.6370    0.0000 C   0  0  0  0  0  0  0  0  0  0  0  0
    8.0542   -2.3857    0.0000 C   0  0  0  0  0  0  0  0  0  0  0  0
    8.4494   -1.5000    0.0000 C   0  0  0  0  0  0  0  0  0  0  0  0
    2.3629    1.0490    0.0000 C   0  0  0  0  0  0  0  0  0  0  0  0
    3.1416    2.3857    0.0000 C   0  0  0  0  0  0  0  0  0  0  0  0
    2.3629    1.9442    0.0000 C   0  0  0  0  0  0  0  0  0  0  0  0
    4.7743   -1.0602    0.0000 H   0  0  0  0  0  0  0  0  0  0  0  0
    4.6320   -0.9360    0.0000 H   0  0  0  0  0  0  0  0  0  0  0  0
    5.2339    0.2397    0.0000 H   0  0  0  0  0  0  0  0  0  0  0  0
    6.0450   -2.1751    0.0000 H   0  0  0  0  0  0  0  0  0  0  0  0
 20  1  1  6  0  0  0
  2 11  1  0  0  0  0
  2 21  1  0  0  0  0
  3 13  1  0  0  0  0
  3 21  1  0  0  0  0
 16  4  1  1  0  0  0
  5 22  2  0  0  0  0
  6 26  1  0  0  0  0
  7 31  2  0  0  0  0
  8  9  1  0  0  0  0
  8 11  1  0  0  0  0
  8 15  1  0  0  0  0
  8 19  1  1  0  0  0
  9 10  1  0  0  0  0
  9 14  1  0  0  0  0
  9 32  1  6  0  0  0
 10 12  1  0  0  0  0
 10 18  1  0  0  0  0
 10 33  1  1  0  0  0
 11 13  1  0  0  0  0
 11 22  1  1  0  0  0
 12 16  1  0  0  0  0
 12 17  1  0  0  0  0
 12 34  1  6  0  0  0
 13 14  1  0  0  0  0
 13 35  1  1  0  0  0
 15 16  1  0  0  0  0
 17 23  1  0  0  0  0
 17 24  1  1  0  0  0
 17 25  1  0  0  0  0
 18 20  1  0  0  0  0
 20 23  1  0  0  0  0
 21 27  1  0  0  0  0
 21 28  1  0  0  0  0
 22 26  1  0  0  0  0
 23 29  2  0  0  0  0
 25 30  2  0  0  0  0
 29 31  1  0  0  0  0
 30 31  1  0  0  0  0
M  END
>  <DRUGBANK_ID>
DB00180

>  <DRUG_GROUPS>
approved; investigational

>  <GENERIC_NAME>
Flunisolide

>  <SYNONYMS>
Flunisolide [anhydrous]

>  <BRANDS>
Aerobid; Bronalide; Lunis; Nasalide; Nasarel; Rhinalar; Synaclyn; Syntaris

>  <CHEMICAL_FORMULA>
C24H31FO6

>  <MOLECULAR_WEIGHT>
434.4977

>  <EXACT_MASS>
434.210466929

>  <IUPAC_NAME>
(1S,2S,4R,8S,9S,11S,12S,13R,19S)-19-fluoro-11-hydroxy-8-(2-hydroxyacetyl)-6,6,9,13-tetramethyl-5,7-dioxapentacyclo[10.8.0.0^{2,9}.0^{4,8}.0^{13,18}]icosa-14,17-dien-16-one

>  <INCHI_IDENTIFIER>
InChI=1S/C24H31FO6/c1-21(2)30-19-9-14-13-8-16(25)15-7-12(27)5-6-22(15,3)20(13)17(28)10-23(14,4)24(19,31-21)18(29)11-26/h5-7,13-14,16-17,19-20,26,28H,8-11H2,1-4H3/t13-,14-,16-,17-,19+,20+,22-,23-,24+/m0/s1

>  <INCHI_KEY>
InChIKey=XSFJVAJPIHIPKU-XWCQMRHXSA-N

>  <SMILES>
[H][C@@]12C[C@@]3([H])[C@]4([H])C[C@H](F)C5=CC(=O)C=C[C@]5(C)[C@@]4([H])[C@@H](O)C[C@]3(C)[C@@]1(OC(C)(C)O2)C(=O)CO

>  <JCHEM_ACCEPTOR_COUNT>
6

>  <JCHEM_DONOR_COUNT>
2

>  <JCHEM_ACIDIC_PKA>
13.73

>  <JCHEM_BASIC_PKA>
-2.9

>  <JCHEM_PHYSIOLOGICAL_CHARGE>
0

>  <ALOGPS_LOGP>
2.2

>  <JCHEM_LOGP>
1.56

>  <ALOGPS_LOGS>
-4.1

>  <JCHEM_POLARIZABILITY>
44.88

>  <JCHEM_POLAR_SURFACE_AREA>
93.06

>  <JCHEM_REFRACTIVITY>
111.89

>  <JCHEM_ROTATABLE_BOND_COUNT>
2

>  <ALOGPS_SOLUBILITY>
3.74e-02 g/l

$$$$
181
  Mrv0541 02231214302D          

 14 14  0  0  1  0            999 V2000
    3.5220   -2.7308    0.0000 Cl  0  0  0  0  0  0  0  0  0  0  0  0
    4.9509    2.2193    0.0000 O   0  0  0  0  0  0  0  0  0  0  0  0
    3.5220    2.2193    0.0000 O   0  0  0  0  0  0  0  0  0  0  0  0
    2.0930    0.5693    0.0000 N   0  0  0  0  0  0  0  0  0  0  0  0
    3.5220    0.5693    0.0000 C   0  0  0  0  0  0  0  0  0  0  0  0
    3.5220   -0.2558    0.0000 C   0  0  0  0  0  0  0  0  0  0  0  0
    4.2365    0.9818    0.0000 C   0  0  0  0  0  0  0  0  0  0  0  0
    2.8075    0.9818    0.0000 C   0  0  0  0  0  0  0  0  0  0  0  0
    4.2365   -0.6683    0.0000 C   0  0  0  0  0  0  0  0  0  0  0  0
    2.8075   -0.6683    0.0000 C   0  0  0  0  0  0  0  0  0  0  0  0
    4.2365    1.8068    0.0000 C   0  0  0  0  0  0  0  0  0  0  0  0
    4.2365   -1.4933    0.0000 C   0  0  0  0  0  0  0  0  0  0  0  0
    2.8075   -1.4933    0.0000 C   0  0  0  0  0  0  0  0  0  0  0  0
    3.5220   -1.9058    0.0000 C   0  0  0  0  0  0  0  0  0  0  0  0
  1 14  1  0  0  0  0
  2 11  1  0  0  0  0
  3 11  2  0  0  0  0
  4  8  1  0  0  0  0
  5  6  1  0  0  0  0
  5  7  1  0  0  0  0
  5  8  1  0  0  0  0
  6  9  2  0  0  0  0
  6 10  1  0  0  0  0
  7 11  1  0  0  0  0
  9 12  1  0  0  0  0
 10 13  2  0  0  0  0
 12 14  2  0  0  0  0
 13 14  1  0  0  0  0
M  END
>  <DRUGBANK_ID>
DB00181

>  <DRUG_GROUPS>
approved

>  <GENERIC_NAME>
Baclofen

>  <BRANDS>
Baclon; Kemstro; Lioresal; Lioresal Intrathecal; Nu-Baclofen; Pms-Baclofen

>  <CHEMICAL_FORMULA>
C10H12ClNO2

>  <MOLECULAR_WEIGHT>
213.661

>  <EXACT_MASS>
213.05565634

>  <IUPAC_NAME>
4-amino-3-(4-chlorophenyl)butanoic acid

>  <INCHI_IDENTIFIER>
InChI=1S/C10H12ClNO2/c11-9-3-1-7(2-4-9)8(6-12)5-10(13)14/h1-4,8H,5-6,12H2,(H,13,14)

>  <INCHI_KEY>
InChIKey=KPYSYYIEGFHWSV-UHFFFAOYSA-N

>  <SMILES>
NCC(CC(O)=O)C1=CC=C(Cl)C=C1

>  <JCHEM_ACCEPTOR_COUNT>
3

>  <JCHEM_DONOR_COUNT>
2

>  <JCHEM_ACIDIC_PKA>
3.89

>  <JCHEM_BASIC_PKA>
9.79

>  <JCHEM_PHYSIOLOGICAL_CHARGE>
0

>  <ALOGPS_LOGP>
-0.82

>  <JCHEM_LOGP>
-0.78

>  <ALOGPS_LOGS>
-2.5

>  <JCHEM_POLARIZABILITY>
21.13

>  <JCHEM_POLAR_SURFACE_AREA>
63.32

>  <JCHEM_REFRACTIVITY>
54.83

>  <JCHEM_ROTATABLE_BOND_COUNT>
4

>  <ALOGPS_SOLUBILITY>
7.12e-01 g/l

$$$$

  Mrv0541 04191212102D          

 10 10  0  0  0  0            999 V2000
   -0.1480    0.2044    0.0000 C   0  0  0  0  0  0  0  0  0  0  0  0
   -0.1480   -0.6206    0.0000 C   0  0  0  0  0  0  0  0  0  0  0  0
   -0.8625    0.6169    0.0000 C   0  0  0  0  0  0  0  0  0  0  0  0
    0.5665    0.6169    0.0000 C   0  0  0  0  0  0  0  0  0  0  0  0
   -0.8625   -1.0331    0.0000 C   0  0  0  0  0  0  0  0  0  0  0  0
   -1.5770    0.2044    0.0000 C   0  0  0  0  0  0  0  0  0  0  0  0
    1.2809    0.2044    0.0000 C   0  0  0  0  0  0  0  0  0  0  0  0
   -1.5770   -0.6206    0.0000 C   0  0  0  0  0  0  0  0  0  0  0  0
    1.2809   -0.6206    0.0000 C   0  0  0  0  0  0  0  0  0  0  0  0
    1.9954    0.6169    0.0000 N   0  0  0  0  0  0  0  0  0  0  0  0
  1  2  1  0  0  0  0
  1  3  2  0  0  0  0
  1  4  1  0  0  0  0
  2  5  2  0  0  0  0
  3  6  1  0  0  0  0
  4  7  1  0  0  0  0
  5  8  1  0  0  0  0
  7  9  1  0  0  0  0
  7 10  1  0  0  0  0
  6  8  2  0  0  0  0
M  END
>  <DRUGBANK_ID>
DB00182

>  <DRUG_GROUPS>
illicit; approved

>  <GENERIC_NAME>
Amphetamine

>  <SYNONYMS>
(+/-)-Benzedrine; (+/-)-beta-Phenylisopropylamine; (+/-)-Desoxynorephedrine; [1-(3-Methoxyphenyl)-2-propyl]amine; 1-Methyl-2-phenylethylamine; 1-Phenyl-2-aminopropane; 3-Methoxyamphetamine; alpha-Methylbenzeneethaneamine; Amfetamine; Amphetamine Sulfate; beta-Aminopropylbenzene; beta-phenyl-isopropylamine; dl-1-Phenyl-2-aminopropane; DL-alpha-Methylphenethylamine; dl-Amphetamine; dl-Benzedrine; Fenylo-izopropylaminyl; m-Methoxyamphetamine; Methamphetamine HCL

>  <BRANDS>
Actedron; Adipan; Allodene; Anorexide; Anorexine; Benzebar; Benzedrine; Benzolone; Dexampex; Elastonon; Fenamin; Ferndex; Finam; Isoamycin; Isoamyne; Isomyn; Mecodrin; Methampex; Norephedrane; Novydrine; Oktedrin; Ortedrine; Paredrine; Percomon; Phenamine; Phenedrine; Profamina; Propisamine; Psychedrine; Raphetamine; Rhinalator; Simpatedrin; Simpatina; Sympamin; Sympamine; Sympatedrine; Weckamine

>  <CHEMICAL_FORMULA>
C9H13N

>  <MOLECULAR_WEIGHT>
135.2062

>  <EXACT_MASS>
135.104799421

>  <IUPAC_NAME>
1-phenylpropan-2-amine

>  <INCHI_IDENTIFIER>
InChI=1S/C9H13N/c1-8(10)7-9-5-3-2-4-6-9/h2-6,8H,7,10H2,1H3

>  <INCHI_KEY>
InChIKey=KWTSXDURSIMDCE-UHFFFAOYSA-N

>  <SMILES>
CC(N)CC1=CC=CC=C1

>  <JCHEM_ACCEPTOR_COUNT>
1

>  <JCHEM_DONOR_COUNT>
1

>  <JCHEM_BASIC_PKA>
10.01

>  <JCHEM_PHYSIOLOGICAL_CHARGE>
1

>  <ALOGPS_LOGP>
1.85

>  <JCHEM_LOGP>
1.8

>  <ALOGPS_LOGS>
-1.9

>  <JCHEM_POLARIZABILITY>
16.17

>  <JCHEM_POLAR_SURFACE_AREA>
26.02

>  <JCHEM_REFRACTIVITY>
43.71

>  <JCHEM_ROTATABLE_BOND_COUNT>
2

>  <ALOGPS_SOLUBILITY>
1.74e+00 g/l

$$$$
183
  Mrv0541 02231214302D          

 54 56  0  0  1  0            999 V2000
    6.8736    0.4439    0.0000 S   0  0  0  0  0  0  0  0  0  0  0  0
    6.1047   -1.9087    0.0000 O   0  0  0  0  0  0  0  0  0  0  0  0
    3.6446   -0.2366    0.0000 O   0  0  0  0  0  0  0  0  0  0  0  0
    3.8624    2.7300    0.0000 O   0  0  0  0  0  0  0  0  0  0  0  0
    6.6558   -2.5227    0.0000 O   0  0  0  0  0  0  0  0  0  0  0  0
    1.9917    1.6055    0.0000 O   0  0  0  0  0  0  0  0  0  0  0  0
    6.5406    4.0246    0.0000 O   0  0  0  0  0  0  0  0  0  0  0  0
    3.0552    2.5599    0.0000 O   0  0  0  0  0  0  0  0  0  0  0  0
    9.6669   -4.8088    0.0000 O   0  0  0  0  0  0  0  0  0  0  0  0
    9.3723   -3.4105    0.0000 O   0  0  0  0  0  0  0  0  0  0  0  0
    4.7465   -1.4647    0.0000 N   0  0  0  0  0  0  0  0  0  0  0  0
    5.5922   -3.4770    0.0000 N   0  0  0  0  0  0  0  0  0  0  0  0
    4.7082    0.7177    0.0000 N   0  0  0  0  0  0  0  0  0  0  0  0
    3.9776   -5.1451    0.0000 N   0  0  0  0  0  0  0  0  0  0  0  0
    5.2207    2.2861    0.0000 N   0  0  0  0  0  0  0  0  0  0  0  0
    8.3087   -4.3649    0.0000 N   0  0  0  0  0  0  0  0  0  0  0  0
    6.8353    2.6263    0.0000 N   0  0  0  0  0  0  0  0  0  0  0  0
    5.0412   -2.8629    0.0000 C   0  0  1  0  0  0  0  0  0  0  0  0
    4.2339   -3.0331    0.0000 C   0  0  0  0  0  0  0  0  0  0  0  0
    5.0028   -0.6805    0.0000 C   0  0  1  0  0  0  0  0  0  0  0  0
    3.9776   -3.8173    0.0000 C   0  0  0  0  0  0  0  0  0  0  0  0
    5.2975   -2.0788    0.0000 C   0  0  0  0  0  0  0  0  0  0  0  0
    5.8100   -0.5104    0.0000 C   0  0  0  0  0  0  0  0  0  0  0  0
    3.1970   -4.0687    0.0000 C   0  0  0  0  0  0  0  0  0  0  0  0
    4.4518   -0.0665    0.0000 C   0  0  0  0  0  0  0  0  0  0  0  0
    4.1571    1.3317    0.0000 C   0  0  1  0  0  0  0  0  0  0  0  0
    3.1970   -4.8937    0.0000 C   0  0  0  0  0  0  0  0  0  0  0  0
    4.4591   -4.4812    0.0000 C   0  0  0  0  0  0  0  0  0  0  0  0
    6.0664    0.2738    0.0000 C   0  0  0  0  0  0  0  0  0  0  0  0
    3.3499    1.1616    0.0000 C   0  0  0  0  0  0  0  0  0  0  0  0
    2.4824   -3.6562    0.0000 C   0  0  0  0  0  0  0  0  0  0  0  0
    4.4135    2.1160    0.0000 C   0  0  0  0  0  0  0  0  0  0  0  0
    5.4770    3.0703    0.0000 C   0  0  1  0  0  0  0  0  0  0  0  0
    6.3994   -3.3069    0.0000 C   0  0  0  0  0  0  0  0  0  0  0  0
    2.4824   -5.3062    0.0000 C   0  0  0  0  0  0  0  0  0  0  0  0
    6.9504   -3.9209    0.0000 C   0  0  0  0  0  0  0  0  0  0  0  0
    4.9260    3.6843    0.0000 C   0  0  0  0  0  0  0  0  0  0  0  0
    1.7680   -4.0687    0.0000 C   0  0  0  0  0  0  0  0  0  0  0  0
    1.7680   -4.8937    0.0000 C   0  0  0  0  0  0  0  0  0  0  0  0
    7.7577   -3.7508    0.0000 C   0  0  0  0  0  0  0  0  0  0  0  0
    5.1824    4.4685    0.0000 C   0  0  0  0  0  0  0  0  0  0  0  0
    2.7989    1.7757    0.0000 C   0  0  0  0  0  0  0  0  0  0  0  0
    6.2843    3.2404    0.0000 C   0  0  0  0  0  0  0  0  0  0  0  0
    4.6313    5.0825    0.0000 C   0  0  0  0  0  0  0  0  0  0  0  0
    5.9896    4.6386    0.0000 C   0  0  0  0  0  0  0  0  0  0  0  0
    7.1300    1.2281    0.0000 C   0  0  0  0  0  0  0  0  0  0  0  0
    4.8877    5.8668    0.0000 C   0  0  0  0  0  0  0  0  0  0  0  0
    6.2459    5.4229    0.0000 C   0  0  0  0  0  0  0  0  0  0  0  0
   11.0252   -5.2527    0.0000 C   0  0  0  0  0  0  0  0  0  0  0  0
    9.1159   -4.1948    0.0000 C   0  0  0  0  0  0  0  0  0  0  0  0
    5.6949    6.0369    0.0000 C   0  0  0  0  0  0  0  0  0  0  0  0
   10.4742   -4.6386    0.0000 C   0  0  0  0  0  0  0  0  0  0  0  0
   11.8324   -5.0825    0.0000 C   0  0  0  0  0  0  0  0  0  0  0  0
   10.7688   -6.0369    0.0000 C   0  0  0  0  0  0  0  0  0  0  0  0
  1 29  1  0  0  0  0
  1 46  1  0  0  0  0
  2 22  2  0  0  0  0
  3 25  2  0  0  0  0
  4 32  2  0  0  0  0
  5 34  2  0  0  0  0
  6 42  1  0  0  0  0
  7 43  2  0  0  0  0
  8 42  2  0  0  0  0
  9 50  1  0  0  0  0
  9 52  1  0  0  0  0
 10 50  2  0  0  0  0
 20 11  1  6  0  0  0
 11 22  1  0  0  0  0
 18 12  1  1  0  0  0
 12 34  1  0  0  0  0
 13 25  1  0  0  0  0
 26 13  1  1  0  0  0
 14 27  1  0  0  0  0
 14 28  1  0  0  0  0
 15 32  1  0  0  0  0
 33 15  1  1  0  0  0
 16 40  1  0  0  0  0
 16 50  1  0  0  0  0
 17 43  1  0  0  0  0
 18 19  1  0  0  0  0
 18 22  1  0  0  0  0
 19 21  1  0  0  0  0
 20 23  1  0  0  0  0
 20 25  1  0  0  0  0
 21 24  1  0  0  0  0
 21 28  2  0  0  0  0
 23 29  1  0  0  0  0
 24 27  1  0  0  0  0
 24 31  2  0  0  0  0
 26 30  1  0  0  0  0
 26 32  1  0  0  0  0
 27 35  2  0  0  0  0
 30 42  1  0  0  0  0
 31 38  1  0  0  0  0
 33 37  1  0  0  0  0
 33 43  1  0  0  0  0
 34 36  1  0  0  0  0
 35 39  1  0  0  0  0
 36 40  1  0  0  0  0
 37 41  1  0  0  0  0
 38 39  2  0  0  0  0
 41 44  2  0  0  0  0
 41 45  1  0  0  0  0
 44 47  1  0  0  0  0
 45 48  2  0  0  0  0
 47 51  2  0  0  0  0
 48 51  1  0  0  0  0
 49 52  1  0  0  0  0
 49 53  1  0  0  0  0
 49 54  1  0  0  0  0
M  END
>  <DRUGBANK_ID>
DB00183

>  <DRUG_GROUPS>
approved

>  <GENERIC_NAME>
Pentagastrin

>  <BRANDS>
Peptavlon

>  <CHEMICAL_FORMULA>
C37H49N7O9S

>  <MOLECULAR_WEIGHT>
767.891

>  <EXACT_MASS>
767.331246891

>  <IUPAC_NAME>
(3S)-3-{[(1S)-1-carbamoyl-2-phenylethyl]carbamoyl}-3-[(2S)-2-[(2S)-3-(1H-indol-3-yl)-2-(3-{[(2-methylpropoxy)carbonyl]amino}propanamido)propanamido]-4-(methylsulfanyl)butanamido]propanoic acid

>  <INCHI_IDENTIFIER>
InChI=1S/C37H49N7O9S/c1-22(2)21-53-37(52)39-15-13-31(45)41-29(18-24-20-40-26-12-8-7-11-25(24)26)35(50)42-27(14-16-54-3)34(49)44-30(19-32(46)47)36(51)43-28(33(38)48)17-23-9-5-4-6-10-23/h4-12,20,22,27-30,40H,13-19,21H2,1-3H3,(H2,38,48)(H,39,52)(H,41,45)(H,42,50)(H,43,51)(H,44,49)(H,46,47)/t27-,28-,29-,30-/m0/s1

>  <INCHI_KEY>
InChIKey=ALXRNCVIQSDJAO-KRCBVYEFSA-N

>  <SMILES>
CSCC[C@H](NC(=O)[C@H](CC1=CNC2=CC=CC=C12)NC(=O)CCNC(=O)OCC(C)C)C(=O)N[C@@H](CC(O)=O)C(=O)N[C@@H](CC1=CC=CC=C1)C(N)=O

>  <JCHEM_ACCEPTOR_COUNT>
8

>  <JCHEM_DONOR_COUNT>
8

>  <JCHEM_ACIDIC_PKA>
4

>  <JCHEM_PHYSIOLOGICAL_CHARGE>
-1

>  <ALOGPS_LOGP>
1.57

>  <JCHEM_LOGP>
1.24

>  <ALOGPS_LOGS>
-5.4

>  <JCHEM_POLARIZABILITY>
80.96

>  <JCHEM_POLAR_SURFACE_AREA>
250.91

>  <JCHEM_REFRACTIVITY>
199.97

>  <JCHEM_ROTATABLE_BOND_COUNT>
23

>  <ALOGPS_SOLUBILITY>
3.09e-03 g/l

$$$$
184
  Mrv0541 02231214302D          

 12 13  0  0  1  0            999 V2000
    2.4347    1.0877    0.0000 N   0  0  0  0  0  0  0  0  0  0  0  0
    2.3876   -1.4598    0.0000 N   0  0  0  0  0  0  0  0  0  0  0  0
    3.1022    0.6028    0.0000 C   0  0  0  0  0  0  0  0  0  0  0  0
    3.7696    1.0877    0.0000 C   0  0  0  0  0  0  0  0  0  0  0  0
    3.5147    1.8723    0.0000 C   0  0  0  0  0  0  0  0  0  0  0  0
    2.6896    1.8723    0.0000 C   0  0  0  0  0  0  0  0  0  0  0  0
    3.1022   -0.2223    0.0000 C   0  0  0  0  0  0  0  0  0  0  0  0
    1.6500    0.8327    0.0000 C   0  0  0  0  0  0  0  0  0  0  0  0
    3.8166   -0.6348    0.0000 C   0  0  0  0  0  0  0  0  0  0  0  0
    2.3876   -0.6348    0.0000 C   0  0  0  0  0  0  0  0  0  0  0  0
    3.8166   -1.4598    0.0000 C   0  0  0  0  0  0  0  0  0  0  0  0
    3.1022   -1.8723    0.0000 C   0  0  0  0  0  0  0  0  0  0  0  0
  1  3  1  0  0  0  0
  1  6  1  0  0  0  0
  1  8  1  0  0  0  0
  2 10  1  0  0  0  0
  2 12  2  0  0  0  0
  3  4  1  0  0  0  0
  3  7  1  0  0  0  0
  4  5  1  0  0  0  0
  5  6  1  0  0  0  0
  7  9  1  0  0  0  0
  7 10  2  0  0  0  0
  9 11  2  0  0  0  0
 11 12  1  0  0  0  0
M  END
>  <DRUGBANK_ID>
DB00184

>  <DRUG_GROUPS>
approved

>  <GENERIC_NAME>
Nicotine

>  <SYNONYMS>
L-Nicotine; Nicotine Alkaloid

>  <BRANDS>
Black Leaf; Black Leaf 40; Campbell's Nico-Soap; Commit; Destruxol Orchid Spray; Emo-Nik; Flux Maag; Fumetobac; Habitrol; Mach-Nic; Niagara P.A. Dust; Nic-Sal; Nico-Dust; Nico-Fume; Nicocide; Nicoderm; Nicoderm Cq; Nicorette; Nicorette Plus; Nicotin; Nicotina; Nicotine Polacrilex; Nicotrol; Nicotrol Inhaler; Nicotrol Ns; Nikotyna; Ortho N-4 Dust; Ortho N-5 Dust; Prostep; Tendust

>  <CHEMICAL_FORMULA>
C10H14N2

>  <MOLECULAR_WEIGHT>
162.2316

>  <EXACT_MASS>
162.115698458

>  <IUPAC_NAME>
3-(1-methylpyrrolidin-2-yl)pyridine

>  <INCHI_IDENTIFIER>
InChI=1S/C10H14N2/c1-12-7-3-5-10(12)9-4-2-6-11-8-9/h2,4,6,8,10H,3,5,7H2,1H3

>  <INCHI_KEY>
InChIKey=SNICXCGAKADSCV-UHFFFAOYSA-N

>  <SMILES>
CN1CCCC1C1=CN=CC=C1

>  <JCHEM_ACCEPTOR_COUNT>
2

>  <JCHEM_DONOR_COUNT>
0

>  <JCHEM_BASIC_PKA>
8.86

>  <JCHEM_PHYSIOLOGICAL_CHARGE>
1

>  <ALOGPS_LOGP>
0.87

>  <JCHEM_LOGP>
1.16

>  <ALOGPS_LOGS>
-0.24

>  <JCHEM_POLARIZABILITY>
18.62

>  <JCHEM_POLAR_SURFACE_AREA>
16.13

>  <JCHEM_REFRACTIVITY>
49.66

>  <JCHEM_ROTATABLE_BOND_COUNT>
1

>  <ALOGPS_SOLUBILITY>
9.33e+01 g/l

$$$$

  Mrv0541 04191212102D          

 13 15  0  0  0  0            999 V2000
   -0.4743    0.0388    0.0000 C   0  0  0  0  0  0  0  0  0  0  0  0
   -1.2993    0.0388    0.0000 C   0  0  0  0  0  0  0  0  0  0  0  0
   -1.7118   -0.6757    0.0000 C   0  0  0  0  0  0  0  0  0  0  0  0
   -1.2993   -1.3902    0.0000 N   0  0  0  0  0  0  0  0  0  0  0  0
   -0.4743   -1.3902    0.0000 C   0  0  0  0  0  0  0  0  0  0  0  0
   -0.4743   -0.7862    0.0000 C   0  0  0  0  0  0  0  0  0  0  0  0
   -1.2993   -0.7862    0.0000 C   0  0  0  0  0  0  0  0  0  0  0  0
    0.3340    0.0481    0.0000 C   0  0  0  0  0  0  0  0  0  0  0  0
   -0.0618   -0.6757    0.0000 C   0  0  1  0  0  0  0  0  0  0  0  0
    0.5042   -1.2759    0.0000 O   0  0  0  0  0  0  0  0  0  0  0  0
    1.2499   -0.9230    0.0000 C   0  0  0  0  0  0  0  0  0  0  0  0
    1.1448   -0.1047    0.0000 S   0  0  0  0  0  0  0  0  0  0  0  0
    1.9737   -1.3188    0.0000 C   0  0  0  0  0  0  0  0  0  0  0  0
  1  2  1  0  0  0  0
  2  3  1  0  0  0  0
  3  4  1  0  0  0  0
  4  5  1  0  0  0  0
  5  9  1  0  0  0  0
  1  9  1  0  0  0  0
  1  6  1  0  0  0  0
  6  7  1  0  0  0  0
  4  7  1  0  0  0  0
  8  9  1  0  0  0  0
  9 10  1  1  0  0  0
 10 11  1  0  0  0  0
 11 12  1  0  0  0  0
  8 12  1  0  0  0  0
 11 13  1  0  0  0  0
M  END
>  <DRUGBANK_ID>
DB00185

>  <DRUG_GROUPS>
approved

>  <GENERIC_NAME>
Cevimeline

>  <SYNONYMS>
Cevimeline hydrochloride; Cevimeline hydrochloride hemihydrate; Cevimeline hydrochloride hydrate

>  <BRANDS>
Evoxac; Saligren

>  <CHEMICAL_FORMULA>
C10H17NOS

>  <MOLECULAR_WEIGHT>
199.313

>  <EXACT_MASS>
199.103084861

>  <IUPAC_NAME>
(2R)-5'-methyl-4-azaspiro[bicyclo[2.2.2]octane-2,2'-[1,4]oxathiolane]

>  <INCHI_IDENTIFIER>
InChI=1S/C10H17NOS/c1-8-12-10(7-13-8)6-11-4-2-9(10)3-5-11/h8-9H,2-7H2,1H3/t8?,10-/m1/s1

>  <INCHI_KEY>
InChIKey=WUTYZMFRCNBCHQ-LHIURRSHSA-N

>  <SMILES>
CC1O[C@@]2(CS1)CN1CCC2CC1

>  <JCHEM_ACCEPTOR_COUNT>
2

>  <JCHEM_DONOR_COUNT>
0

>  <JCHEM_BASIC_PKA>
8.59

>  <JCHEM_PHYSIOLOGICAL_CHARGE>
1

>  <ALOGPS_LOGP>
1.46

>  <JCHEM_LOGP>
1

>  <ALOGPS_LOGS>
-1.9

>  <JCHEM_POLARIZABILITY>
21.89

>  <JCHEM_POLAR_SURFACE_AREA>
12.47

>  <JCHEM_REFRACTIVITY>
55.92

>  <JCHEM_ROTATABLE_BOND_COUNT>
0

>  <ALOGPS_SOLUBILITY>
2.41e+00 g/l

$$$$
186
  Mrv0541 02231214302D          

 21 23  0  0  1  0            999 V2000
    2.5467   -2.3783    0.0000 Cl  0  0  0  0  0  0  0  0  0  0  0  0
    3.6080   -1.4841    0.0000 Cl  0  0  0  0  0  0  0  0  0  0  0  0
    3.8811    2.3401    0.0000 O   0  0  0  0  0  0  0  0  0  0  0  0
    2.3403    2.3401    0.0000 O   0  0  0  0  0  0  0  0  0  0  0  0
    2.1838    0.9518    0.0000 N   0  0  0  0  0  0  0  0  0  0  0  0
    4.0375    0.9518    0.0000 N   0  0  0  0  0  0  0  0  0  0  0  0
    3.1106   -0.2105    0.0000 C   0  0  0  0  0  0  0  0  0  0  0  0
    3.8540    0.1475    0.0000 C   0  0  0  0  0  0  0  0  0  0  0  0
    2.3674    0.1475    0.0000 C   0  0  0  0  0  0  0  0  0  0  0  0
    4.4989   -0.3669    0.0000 C   0  0  0  0  0  0  0  0  0  0  0  0
    3.5231    1.5968    0.0000 C   0  0  0  0  0  0  0  0  0  0  0  0
    3.1881   -1.0663    0.0000 C   0  0  0  0  0  0  0  0  0  0  0  0
    2.6981    1.5968    0.0000 C   0  0  0  0  0  0  0  0  0  0  0  0
    1.6500   -0.3256    0.0000 C   0  0  0  0  0  0  0  0  0  0  0  0
    2.4818   -1.5559    0.0000 C   0  0  0  0  0  0  0  0  0  0  0  0
    1.7076   -1.1830    0.0000 C   0  0  0  0  0  0  0  0  0  0  0  0
    4.3760   -1.1827    0.0000 C   0  0  0  0  0  0  0  0  0  0  0  0
    5.2669   -0.0655    0.0000 C   0  0  0  0  0  0  0  0  0  0  0  0
    5.0210   -1.6971    0.0000 C   0  0  0  0  0  0  0  0  0  0  0  0
    5.9120   -0.5799    0.0000 C   0  0  0  0  0  0  0  0  0  0  0  0
    5.7890   -1.3956    0.0000 C   0  0  0  0  0  0  0  0  0  0  0  0
  1 15  1  0  0  0  0
  2 17  1  0  0  0  0
  3 11  1  0  0  0  0
  4 13  2  0  0  0  0
  5  9  1  0  0  0  0
  5 13  1  0  0  0  0
  6  8  2  0  0  0  0
  6 11  1  0  0  0  0
  7  8  1  0  0  0  0
  7  9  2  0  0  0  0
  7 12  1  0  0  0  0
  8 10  1  0  0  0  0
  9 14  1  0  0  0  0
 10 17  1  0  0  0  0
 10 18  2  0  0  0  0
 11 13  1  0  0  0  0
 12 15  2  0  0  0  0
 14 16  2  0  0  0  0
 15 16  1  0  0  0  0
 17 19  2  0  0  0  0
 18 20  1  0  0  0  0
 19 21  1  0  0  0  0
 20 21  2  0  0  0  0
M  END
>  <DRUGBANK_ID>
DB00186

>  <DRUG_GROUPS>
approved

>  <GENERIC_NAME>
Lorazepam

>  <SYNONYMS>
(+/-)-Lorazepam; O-Chlorooxazepam; O-Chloroxazepam

>  <BRANDS>
Almazine; Alzapam; Anxiedin; Aplacassee; Ativan; Bonatranquan; Delormetazepam; Emotival; Idalprem; Lorabenz; Lorax; Loraz; Lorazepam Intensol; Lorsilan; Pro Dorm; Psicopax; Punktyl; Quait; Securit; Sedatival; Sedazin; Somagerol; Tavor; Temesta; Wypax

>  <CHEMICAL_FORMULA>
C15H10Cl2N2O2

>  <MOLECULAR_WEIGHT>
321.158

>  <EXACT_MASS>
320.011932988

>  <IUPAC_NAME>
7-chloro-5-(2-chlorophenyl)-3-hydroxy-2,3-dihydro-1H-1,4-benzodiazepin-2-one

>  <INCHI_IDENTIFIER>
InChI=1S/C15H10Cl2N2O2/c16-8-5-6-12-10(7-8)13(19-15(21)14(20)18-12)9-3-1-2-4-11(9)17/h1-7,15,21H,(H,18,20)

>  <INCHI_KEY>
InChIKey=DIWRORZWFLOCLC-UHFFFAOYSA-N

>  <SMILES>
OC1N=C(C2=CC=CC=C2Cl)C2=C(NC1=O)C=CC(Cl)=C2

>  <JCHEM_ACCEPTOR_COUNT>
3

>  <JCHEM_DONOR_COUNT>
2

>  <JCHEM_ACIDIC_PKA>
10.61

>  <JCHEM_BASIC_PKA>
-2.2

>  <JCHEM_PHYSIOLOGICAL_CHARGE>
0

>  <ALOGPS_LOGP>
2.98

>  <JCHEM_LOGP>
3.53

>  <ALOGPS_LOGS>
-4.3

>  <JCHEM_POLARIZABILITY>
30.33

>  <JCHEM_POLAR_SURFACE_AREA>
61.69

>  <JCHEM_REFRACTIVITY>
82.7

>  <JCHEM_ROTATABLE_BOND_COUNT>
1

>  <ALOGPS_SOLUBILITY>
1.76e-02 g/l

$$$$
187
  Mrv0541 02231214302D          

 21 21  0  0  1  0            999 V2000
    3.0790    1.0313    0.0000 O   0  0  0  0  0  0  0  0  0  0  0  0
    3.0790    2.6812    0.0000 O   0  0  0  0  0  0  0  0  0  0  0  0
    1.6500   -3.9188    0.0000 O   0  0  0  0  0  0  0  0  0  0  0  0
    3.0790   -3.9188    0.0000 O   0  0  0  0  0  0  0  0  0  0  0  0
    4.5079    3.5062    0.0000 N   0  0  0  0  0  0  0  0  0  0  0  0
    3.7934    2.2688    0.0000 C   0  0  0  0  0  0  0  0  0  0  0  0
    4.5079    2.6812    0.0000 C   0  0  0  0  0  0  0  0  0  0  0  0
    5.2223    3.9188    0.0000 C   0  0  0  0  0  0  0  0  0  0  0  0
    3.7934    1.4438    0.0000 C   0  0  0  0  0  0  0  0  0  0  0  0
    5.2223    4.7438    0.0000 C   0  0  0  0  0  0  0  0  0  0  0  0
    5.9369    3.5062    0.0000 C   0  0  0  0  0  0  0  0  0  0  0  0
    3.0790   -1.4438    0.0000 C   0  0  0  0  0  0  0  0  0  0  0  0
    3.0790   -2.2688    0.0000 C   0  0  0  0  0  0  0  0  0  0  0  0
    3.0790    0.2063    0.0000 C   0  0  0  0  0  0  0  0  0  0  0  0
    2.3644   -1.0313    0.0000 C   0  0  0  0  0  0  0  0  0  0  0  0
    3.7934   -1.0313    0.0000 C   0  0  0  0  0  0  0  0  0  0  0  0
    2.3644   -0.2063    0.0000 C   0  0  0  0  0  0  0  0  0  0  0  0
    3.7934   -0.2063    0.0000 C   0  0  0  0  0  0  0  0  0  0  0  0
    2.3644   -2.6812    0.0000 C   0  0  0  0  0  0  0  0  0  0  0  0
    2.3644   -3.5062    0.0000 C   0  0  0  0  0  0  0  0  0  0  0  0
    1.6500   -4.7438    0.0000 C   0  0  0  0  0  0  0  0  0  0  0  0
  1  9  1  0  0  0  0
  1 14  1  0  0  0  0
  2  6  1  0  0  0  0
  3 20  1  0  0  0  0
  3 21  1  0  0  0  0
  4 20  2  0  0  0  0
  5  7  1  0  0  0  0
  5  8  1  0  0  0  0
  6  7  1  0  0  0  0
  6  9  1  0  0  0  0
  8 10  1  0  0  0  0
  8 11  1  0  0  0  0
 12 13  1  0  0  0  0
 12 15  2  0  0  0  0
 12 16  1  0  0  0  0
 13 19  1  0  0  0  0
 14 17  2  0  0  0  0
 14 18  1  0  0  0  0
 15 17  1  0  0  0  0
 16 18  2  0  0  0  0
 19 20  1  0  0  0  0
M  END
>  <DRUGBANK_ID>
DB00187

>  <DRUG_GROUPS>
approved

>  <GENERIC_NAME>
Esmolol

>  <BRANDS>
Brevibloc; Esmolol HCL; Esmolol Hydrochloride

>  <CHEMICAL_FORMULA>
C16H25NO4

>  <MOLECULAR_WEIGHT>
295.374

>  <EXACT_MASS>
295.178358293

>  <IUPAC_NAME>
methyl 3-(4-{2-hydroxy-3-[(propan-2-yl)amino]propoxy}phenyl)propanoate

>  <INCHI_IDENTIFIER>
InChI=1S/C16H25NO4/c1-12(2)17-10-14(18)11-21-15-7-4-13(5-8-15)6-9-16(19)20-3/h4-5,7-8,12,14,17-18H,6,9-11H2,1-3H3

>  <INCHI_KEY>
InChIKey=AQNDDEOPVVGCPG-UHFFFAOYSA-N

>  <SMILES>
COC(=O)CCC1=CC=C(OCC(O)CNC(C)C)C=C1

>  <JCHEM_ACCEPTOR_COUNT>
4

>  <JCHEM_DONOR_COUNT>
2

>  <JCHEM_ACIDIC_PKA>
14.09

>  <JCHEM_BASIC_PKA>
9.67

>  <JCHEM_PHYSIOLOGICAL_CHARGE>
1

>  <ALOGPS_LOGP>
2.02

>  <JCHEM_LOGP>
1.82

>  <ALOGPS_LOGS>
-3.3

>  <JCHEM_POLARIZABILITY>
33.68

>  <JCHEM_POLAR_SURFACE_AREA>
67.79

>  <JCHEM_REFRACTIVITY>
81.05

>  <JCHEM_ROTATABLE_BOND_COUNT>
10

>  <ALOGPS_SOLUBILITY>
1.44e-01 g/l

$$$$

  Mrv0541 04191212102D          

 28 29  0  0  1  0            999 V2000
    6.9269  -17.7973    0.0000 C   0  0  0  0  0  0  0  0  0  0  0  0
    6.9269  -18.6223    0.0000 N   0  0  0  0  0  0  0  0  0  0  0  0
    6.2124  -17.3848    0.0000 C   0  0  0  0  0  0  0  0  0  0  0  0
    6.2124  -19.0348    0.0000 C   0  0  0  0  0  0  0  0  0  0  0  0
    5.4979  -17.7973    0.0000 N   0  0  0  0  0  0  0  0  0  0  0  0
    5.4979  -18.6223    0.0000 C   0  0  0  0  0  0  0  0  0  0  0  0
    7.6414  -17.3848    0.0000 C   0  0  0  0  0  0  0  0  0  0  0  0
    8.3558  -17.7973    0.0000 N   0  0  0  0  0  0  0  0  0  0  0  0
    7.6414  -16.5598    0.0000 O   0  0  0  0  0  0  0  0  0  0  0  0
    9.0703  -17.3848    0.0000 C   0  0  2  0  0  0  0  0  0  0  0  0
    9.7848  -17.7973    0.0000 C   0  0  0  0  0  0  0  0  0  0  0  0
    9.0703  -16.5598    0.0000 C   0  0  0  0  0  0  0  0  0  0  0  0
    9.7848  -16.1473    0.0000 C   0  0  0  0  0  0  0  0  0  0  0  0
    9.7848  -15.3222    0.0000 C   0  0  0  0  0  0  0  0  0  0  0  0
   10.4993  -16.5598    0.0000 C   0  0  0  0  0  0  0  0  0  0  0  0
   10.4994  -14.9097    0.0000 C   0  0  0  0  0  0  0  0  0  0  0  0
   11.2138  -16.1473    0.0000 C   0  0  0  0  0  0  0  0  0  0  0  0
   11.2138  -15.3222    0.0000 C   0  0  0  0  0  0  0  0  0  0  0  0
    9.7848  -18.6223    0.0000 O   0  0  0  0  0  0  0  0  0  0  0  0
   10.4993  -17.3848    0.0000 N   0  0  0  0  0  0  0  0  0  0  0  0
   11.2138  -17.7973    0.0000 C   0  0  1  0  0  0  0  0  0  0  0  0
   11.9282  -17.3848    0.0000 C   0  0  0  0  0  0  0  0  0  0  0  0
   12.6427  -17.7973    0.0000 C   0  0  0  0  0  0  0  0  0  0  0  0
   13.3572  -17.3848    0.0000 C   0  0  0  0  0  0  0  0  0  0  0  0
   12.6427  -18.6223    0.0000 C   0  0  0  0  0  0  0  0  0  0  0  0
   11.2138  -18.6223    0.0000 B   0  0  0  0  0  0  0  0  0  0  0  0
   10.4993  -19.0348    0.0000 O   0  0  0  0  0  0  0  0  0  0  0  0
   11.9282  -19.0348    0.0000 O   0  0  0  0  0  0  0  0  0  0  0  0
  2  1  1  0  0  0  0
  3  1  2  0  0  0  0
  4  2  2  0  0  0  0
  5  3  1  0  0  0  0
  6  4  1  0  0  0  0
  6  5  2  0  0  0  0
  1  7  1  0  0  0  0
  7  8  1  0  0  0  0
  7  9  2  0  0  0  0
 10  8  1  1  0  0  0
 10 11  1  0  0  0  0
 10 12  1  0  0  0  0
 14 13  1  0  0  0  0
 15 13  2  0  0  0  0
 16 14  2  0  0  0  0
 17 15  1  0  0  0  0
 18 16  1  0  0  0  0
 18 17  2  0  0  0  0
 12 13  1  0  0  0  0
 11 19  2  0  0  0  0
 11 20  1  0  0  0  0
 20 21  1  0  0  0  0
 21 22  1  0  0  0  0
 22 23  1  0  0  0  0
 23 24  1  0  0  0  0
 23 25  1  0  0  0  0
 21 26  1  1  0  0  0
 26 27  1  0  0  0  0
 26 28  1  0  0  0  0
M  END
>  <DRUGBANK_ID>
DB00188

>  <DRUG_GROUPS>
approved; investigational

>  <GENERIC_NAME>
Bortezomib

>  <BRANDS>
Velcade

>  <CHEMICAL_FORMULA>
C19H25BN4O4

>  <MOLECULAR_WEIGHT>
384.237

>  <EXACT_MASS>
384.196885774

>  <IUPAC_NAME>
[(1R)-3-methyl-1-[(2S)-3-phenyl-2-(pyrazin-2-ylformamido)propanamido]butyl]boronic acid

>  <INCHI_IDENTIFIER>
InChI=1S/C19H25BN4O4/c1-13(2)10-17(20(27)28)24-18(25)15(11-14-6-4-3-5-7-14)23-19(26)16-12-21-8-9-22-16/h3-9,12-13,15,17,27-28H,10-11H2,1-2H3,(H,23,26)(H,24,25)/t15-,17-/m0/s1

>  <INCHI_KEY>
InChIKey=GXJABQQUPOEUTA-RDJZCZTQSA-N

>  <SMILES>
CC(C)C[C@H](NC(=O)[C@H](CC1=CC=CC=C1)NC(=O)C1=CN=CC=N1)B(O)O

>  <JCHEM_ACCEPTOR_COUNT>
6

>  <JCHEM_DONOR_COUNT>
4

>  <JCHEM_ACIDIC_PKA>
13.04

>  <JCHEM_BASIC_PKA>
-0.7

>  <JCHEM_PHYSIOLOGICAL_CHARGE>
0

>  <ALOGPS_LOGP>
0.89

>  <JCHEM_LOGP>
1.53

>  <ALOGPS_LOGS>
-3.9

>  <JCHEM_POLARIZABILITY>
40.48

>  <JCHEM_POLAR_SURFACE_AREA>
124.44

>  <JCHEM_REFRACTIVITY>
99.37

>  <JCHEM_ROTATABLE_BOND_COUNT>
9

>  <ALOGPS_SOLUBILITY>
5.32e-02 g/l

$$$$

  Mrv0541 04191212102D          

 10  9  0  0  0  0            999 V2000
    6.2861   -7.7655    0.0000 C   0  0  0  0  0  0  0  0  0  0  0  0
    6.9920   -7.3579    0.0000 C   0  0  0  0  0  0  0  0  0  0  0  0
    7.6978   -7.7655    0.0000 C   0  0  0  0  0  0  0  0  0  0  0  0
    8.4037   -7.3579    0.0000 C   0  0  0  0  0  0  0  0  0  0  0  0
    9.1202   -7.7717    0.0000 Cl  0  0  0  0  0  0  0  0  0  0  0  0
    8.4035   -6.5294    0.0000 H   0  0  0  0  0  0  0  0  0  0  0  0
    7.3967   -6.6390    0.0000 C   0  0  0  0  0  0  0  0  0  0  0  0
    6.5693   -6.6390    0.0000 O   0  0  0  0  0  0  0  0  0  0  0  0
    5.5724   -7.3469    0.0000 C   0  0  0  0  0  0  0  0  0  0  0  0
    7.8054   -5.9213    0.0000 C   0  0  0  0  0  0  0  0  0  0  0  0
  2  1  1  0  0  0  0
  3  2  1  0  0  0  0
  4  3  2  0  0  0  0
  4  5  1  0  0  0  0
  4  6  1  4  0  0  0
  2  7  1  0  0  0  0
  2  8  1  0  0  0  0
  1  9  1  0  0  0  0
  7 10  3  0  0  0  0
M  END
>  <DRUGBANK_ID>
DB00189

>  <DRUG_GROUPS>
illicit; approved

>  <GENERIC_NAME>
Ethchlorvynol

>  <SYNONYMS>
Aethyl-chlorvynol; Etchlorvinolo; Ethchlorovynol; Ethchlorvinol; Ethchlorvinyl; Ethclorvynol; Ethochlorvynol; Ethychlorvynol

>  <BRANDS>
Alvinol; Arvynol; Normonson; Normosan; Normoson; Nostel; Nromoson; Placidil; Placidyl; Roeridorm; Serenesil; Serenil; Serensil; Serensiloline

>  <CHEMICAL_FORMULA>
C7H9ClO

>  <MOLECULAR_WEIGHT>
144.599

>  <EXACT_MASS>
144.034192617

>  <IUPAC_NAME>
1-chloro-3-ethylpent-1-en-4-yn-3-ol

>  <INCHI_IDENTIFIER>
InChI=1S/C7H9ClO/c1-3-7(9,4-2)5-6-8/h1,5-6,9H,4H2,2H3/b6-5+

>  <INCHI_KEY>
InChIKey=ZEHYJZXQEQOSON-AATRIKPKSA-N

>  <SMILES>
[H]C(Cl)=CC(O)(CC)C#C

>  <JCHEM_ACCEPTOR_COUNT>
1

>  <JCHEM_DONOR_COUNT>
1

>  <JCHEM_ACIDIC_PKA>
12.88

>  <JCHEM_BASIC_PKA>
-3.7

>  <JCHEM_PHYSIOLOGICAL_CHARGE>
0

>  <ALOGPS_LOGP>
1.45

>  <JCHEM_LOGP>
1.62

>  <ALOGPS_LOGS>
-3

>  <JCHEM_POLARIZABILITY>
14.77

>  <JCHEM_POLAR_SURFACE_AREA>
20.23

>  <JCHEM_REFRACTIVITY>
38.64

>  <JCHEM_ROTATABLE_BOND_COUNT>
2

>  <ALOGPS_SOLUBILITY>
1.43e-01 g/l

$$$$

  Mrv0541 04191212102D          

 17 16  0  0  1  0            999 V2000
    5.4359   -5.9191    0.0000 C   0  0  0  0  0  0  0  0  0  0  0  0
    5.4359   -6.7442    0.0000 C   0  0  0  0  0  0  0  0  0  0  0  0
    4.7214   -5.5066    0.0000 C   0  0  0  0  0  0  0  0  0  0  0  0
    4.7214   -7.1567    0.0000 C   0  0  0  0  0  0  0  0  0  0  0  0
    4.0069   -5.9191    0.0000 C   0  0  0  0  0  0  0  0  0  0  0  0
    4.0069   -6.7442    0.0000 C   0  0  0  0  0  0  0  0  0  0  0  0
    3.2925   -5.5067    0.0000 O   0  0  0  0  0  0  0  0  0  0  0  0
    3.2925   -7.1567    0.0000 O   0  0  0  0  0  0  0  0  0  0  0  0
    6.1504   -5.5066    0.0000 C   0  0  0  0  0  0  0  0  0  0  0  0
    6.8649   -5.9191    0.0000 C   0  0  2  0  0  0  0  0  0  0  0  0
    7.5793   -5.5066    0.0000 C   0  0  0  0  0  0  0  0  0  0  0  0
    8.2938   -5.9191    0.0000 O   0  0  0  0  0  0  0  0  0  0  0  0
    7.5793   -4.6816    0.0000 O   0  0  0  0  0  0  0  0  0  0  0  0
    6.4609   -6.6299    0.0000 C   0  0  0  0  0  0  0  0  0  0  0  0
    7.2859   -6.6299    0.0000 N   0  0  0  0  0  0  0  0  0  0  0  0
    6.8814   -7.3490    0.0000 N   0  0  0  0  0  0  0  0  0  0  0  0
    8.6477   -7.2561    0.0000 O   0  0  0  0  0  0  0  0  0  0  0  0
  2  1  1  0  0  0  0
  3  1  2  0  0  0  0
  4  2  2  0  0  0  0
  5  3  1  0  0  0  0
  6  4  1  0  0  0  0
  6  5  2  0  0  0  0
  5  7  1  0  0  0  0
  6  8  1  0  0  0  0
  1  9  1  0  0  0  0
  9 10  1  0  0  0  0
 10 11  1  0  0  0  0
 11 12  1  0  0  0  0
 11 13  2  0  0  0  0
 10 14  1  0  0  0  0
 10 15  1  1  0  0  0
 15 16  1  0  0  0  0
M  END
>  <DRUGBANK_ID>
DB00190

>  <DRUG_GROUPS>
approved

>  <GENERIC_NAME>
Carbidopa

>  <SYNONYMS>
Alpha-Methyldopahydrazine; C-DOPA; Carbidopa Anhydrous; Carbidopa Monohydrate; Carbidopum [INN-Latin]; MK-486; N-Aminomethyldopa

>  <BRANDS>
Atamet; HMD; Lodosin; Lodosyn

>  <CHEMICAL_FORMULA>
C10H16N2O5

>  <MOLECULAR_WEIGHT>
244.2444

>  <EXACT_MASS>
244.105921632

>  <IUPAC_NAME>
(2S)-3-(3,4-dihydroxyphenyl)-2-hydrazinyl-2-methylpropanoic acid hydrate

>  <INCHI_IDENTIFIER>
InChI=1S/C10H14N2O4.H2O/c1-10(12-11,9(15)16)5-6-2-3-7(13)8(14)4-6;/h2-4,12-14H,5,11H2,1H3,(H,15,16);1H2/t10-;/m0./s1

>  <INCHI_KEY>
InChIKey=QTAOMKOIBXZKND-PPHPATTJSA-N

>  <SMILES>
O.C[C@@](CC1=CC(O)=C(O)C=C1)(NN)C(O)=O

>  <JCHEM_ACCEPTOR_COUNT>
6

>  <JCHEM_DONOR_COUNT>
5

>  <JCHEM_ACIDIC_PKA>
3.59

>  <JCHEM_BASIC_PKA>
5.65

>  <JCHEM_PHYSIOLOGICAL_CHARGE>
-1

>  <JCHEM_LOGP>
-1.2

>  <JCHEM_POLARIZABILITY>
21.81

>  <JCHEM_POLAR_SURFACE_AREA>
115.81

>  <JCHEM_REFRACTIVITY>
68.77

>  <JCHEM_ROTATABLE_BOND_COUNT>
4

$$$$
191
  Mrv0541 02231214302D          

 11 11  0  0  0  0            999 V2000
    3.7935    1.3943    0.0000 N   0  0  0  0  0  0  0  0  0  0  0  0
    3.0791    0.9818    0.0000 C   0  0  0  0  0  0  0  0  0  0  0  0
    2.3645    0.5693    0.0000 C   0  0  0  0  0  0  0  0  0  0  0  0
    2.6665    1.6962    0.0000 C   0  0  0  0  0  0  0  0  0  0  0  0
    3.4916    0.2673    0.0000 C   0  0  0  0  0  0  0  0  0  0  0  0
    2.3645   -0.2558    0.0000 C   0  0  0  0  0  0  0  0  0  0  0  0
    3.0791   -0.6683    0.0000 C   0  0  0  0  0  0  0  0  0  0  0  0
    1.6500   -0.6683    0.0000 C   0  0  0  0  0  0  0  0  0  0  0  0
    3.0791   -1.4933    0.0000 C   0  0  0  0  0  0  0  0  0  0  0  0
    1.6500   -1.4933    0.0000 C   0  0  0  0  0  0  0  0  0  0  0  0
    2.3645   -1.9058    0.0000 C   0  0  0  0  0  0  0  0  0  0  0  0
  1  2  1  0  0  0  0
  2  3  1  0  0  0  0
  2  4  1  0  0  0  0
  2  5  1  0  0  0  0
  3  6  1  0  0  0  0
  6  7  2  0  0  0  0
  6  8  1  0  0  0  0
  7  9  1  0  0  0  0
  8 10  2  0  0  0  0
  9 11  2  0  0  0  0
 10 11  1  0  0  0  0
M  END
>  <DRUGBANK_ID>
DB00191

>  <DRUG_GROUPS>
illicit; approved

>  <GENERIC_NAME>
Phentermine

>  <SYNONYMS>
(alpha,alpha)-Dimethylphenethylamine

>  <SALTS>
Phentermine Hydrochloride

>  <BRANDS>
Adipex-P; Duromine; Fastin; Inoamin; Ionamin; Linyl; Lipopill; Lonamin; Mirapront; Normephentermine; Obenix; Obestin-30; Oby-Trim; Omnibex; Ona Mast; Ona-Mast; Phentercot; Phentermine Resin 30; Phentride; Pro-Fast; Suprenza; Teramine; Tora; Uritone; Wilpo; Wyamine Sulfate; Zantryl

>  <CHEMICAL_FORMULA>
C10H15N

>  <MOLECULAR_WEIGHT>
149.2328

>  <EXACT_MASS>
149.120449485

>  <IUPAC_NAME>
2-methyl-1-phenylpropan-2-amine

>  <INCHI_IDENTIFIER>
InChI=1S/C10H15N/c1-10(2,11)8-9-6-4-3-5-7-9/h3-7H,8,11H2,1-2H3

>  <INCHI_KEY>
InChIKey=DHHVAGZRUROJKS-UHFFFAOYSA-N

>  <SMILES>
CC(C)(N)CC1=CC=CC=C1

>  <JCHEM_ACCEPTOR_COUNT>
1

>  <JCHEM_DONOR_COUNT>
1

>  <JCHEM_BASIC_PKA>
10.25

>  <JCHEM_PHYSIOLOGICAL_CHARGE>
1

>  <ALOGPS_LOGP>
2.32

>  <JCHEM_LOGP>
2.08

>  <ALOGPS_LOGS>
-2.3

>  <JCHEM_POLARIZABILITY>
17.87

>  <JCHEM_POLAR_SURFACE_AREA>
26.02

>  <JCHEM_REFRACTIVITY>
48.34

>  <JCHEM_ROTATABLE_BOND_COUNT>
2

>  <ALOGPS_SOLUBILITY>
7.57e-01 g/l

$$$$
192
  Mrv0541 02231214302D          

 23 25  0  0  0  0            999 V2000
    6.8716    0.2479    0.0000 O   0  0  0  0  0  0  0  0  0  0  0  0
    2.9554    0.8291    0.0000 N   0  0  0  0  0  0  0  0  0  0  0  0
    5.7156    1.0879    0.0000 N   0  0  0  0  0  0  0  0  0  0  0  0
    5.5662   -0.3333    0.0000 C   0  0  0  0  0  0  0  0  0  0  0  0
    5.0813    0.3341    0.0000 C   0  0  0  0  0  0  0  0  0  0  0  0
    6.2336   -0.8182    0.0000 C   0  0  0  0  0  0  0  0  0  0  0  0
    4.8988   -0.8182    0.0000 C   0  0  0  0  0  0  0  0  0  0  0  0
    5.9787   -1.6028    0.0000 C   0  0  0  0  0  0  0  0  0  0  0  0
    5.1537   -1.6028    0.0000 C   0  0  0  0  0  0  0  0  0  0  0  0
    4.2608    0.2479    0.0000 C   0  0  0  0  0  0  0  0  0  0  0  0
    6.0512    0.3341    0.0000 C   0  0  0  0  0  0  0  0  0  0  0  0
    3.7759    0.9153    0.0000 C   0  0  0  0  0  0  0  0  0  0  0  0
    7.0714   -0.6266    0.0000 C   0  0  0  0  0  0  0  0  0  0  0  0
    4.0611   -0.6266    0.0000 C   0  0  0  0  0  0  0  0  0  0  0  0
    6.5439   -2.2503    0.0000 C   0  0  0  0  0  0  0  0  0  0  0  0
    4.5887   -2.2503    0.0000 C   0  0  0  0  0  0  0  0  0  0  0  0
    7.6513   -1.2608    0.0000 C   0  0  0  0  0  0  0  0  0  0  0  0
    3.4812   -1.2608    0.0000 C   0  0  0  0  0  0  0  0  0  0  0  0
    7.3858   -2.0781    0.0000 C   0  0  0  0  0  0  0  0  0  0  0  0
    3.7467   -2.0781    0.0000 C   0  0  0  0  0  0  0  0  0  0  0  0
    2.4705    1.4966    0.0000 C   0  0  0  0  0  0  0  0  0  0  0  0
    1.6500    1.4103    0.0000 C   0  0  0  0  0  0  0  0  0  0  0  0
    2.8061    2.2503    0.0000 C   0  0  0  0  0  0  0  0  0  0  0  0
  1 11  2  0  0  0  0
  2 12  1  0  0  0  0
  2 21  1  0  0  0  0
  3 11  1  0  0  0  0
  4  5  1  0  0  0  0
  4  6  1  0  0  0  0
  4  7  1  0  0  0  0
  4 11  1  0  0  0  0
  5 10  1  0  0  0  0
  6  8  1  0  0  0  0
  6 13  2  0  0  0  0
  7  9  1  0  0  0  0
  7 14  2  0  0  0  0
  8  9  1  0  0  0  0
  8 15  2  0  0  0  0
  9 16  2  0  0  0  0
 10 12  1  0  0  0  0
 13 17  1  0  0  0  0
 14 18  1  0  0  0  0
 15 19  1  0  0  0  0
 16 20  1  0  0  0  0
 17 19  2  0  0  0  0
 18 20  2  0  0  0  0
 21 22  1  0  0  0  0
 21 23  1  0  0  0  0
M  END
>  <DRUGBANK_ID>
DB00192

>  <DRUG_GROUPS>
approved

>  <GENERIC_NAME>
Indecainide

>  <SYNONYMS>
9-(3-(Isopropylamino)propyl)-9-fluorenylcarboxamid; 9-(3-(Isopropylamino)propyl))fluorene-9-carboxamide; Indecainida [Spanish]; Indecainidum [Latin]; Ricainid; Ricainide

>  <BRANDS>
Decabid

>  <CHEMICAL_FORMULA>
C20H24N2O

>  <MOLECULAR_WEIGHT>
308.4174

>  <EXACT_MASS>
308.1888634

>  <IUPAC_NAME>
9-{3-[(propan-2-yl)amino]propyl}-9H-fluorene-9-carboxamide

>  <INCHI_IDENTIFIER>
InChI=1S/C20H24N2O/c1-14(2)22-13-7-12-20(19(21)23)17-10-5-3-8-15(17)16-9-4-6-11-18(16)20/h3-6,8-11,14,22H,7,12-13H2,1-2H3,(H2,21,23)

>  <INCHI_KEY>
InChIKey=UCEWGESNIULAGX-UHFFFAOYSA-N

>  <SMILES>
CC(C)NCCCC1(C(N)=O)C2=CC=CC=C2C2=CC=CC=C12

>  <JCHEM_ACCEPTOR_COUNT>
2

>  <JCHEM_DONOR_COUNT>
2

>  <JCHEM_ACIDIC_PKA>
16.51

>  <JCHEM_BASIC_PKA>
10.4

>  <JCHEM_PHYSIOLOGICAL_CHARGE>
1

>  <ALOGPS_LOGP>
3.24

>  <JCHEM_LOGP>
3.26

>  <ALOGPS_LOGS>
-5.5

>  <JCHEM_POLARIZABILITY>
35.56

>  <JCHEM_POLAR_SURFACE_AREA>
55.12

>  <JCHEM_REFRACTIVITY>
94.05

>  <JCHEM_ROTATABLE_BOND_COUNT>
6

>  <ALOGPS_SOLUBILITY>
8.96e-04 g/l

$$$$
193
  Mrv0541 02231214302D          

 19 20  0  0  1  0            999 V2000
    4.0955    0.4678    0.0000 O   0  0  0  0  0  0  0  0  0  0  0  0
    6.9830    1.1823    0.0000 O   0  0  0  0  0  0  0  0  0  0  0  0
    2.3645   -0.6592    0.0000 N   0  0  0  0  0  0  0  0  0  0  0  0
    3.7935   -0.6592    0.0000 C   0  0  2  0  0  0  0  0  0  0  0  0
    4.5080   -0.2467    0.0000 C   0  0  1  0  0  0  0  0  0  0  0  0
    3.7935   -1.4842    0.0000 C   0  0  0  0  0  0  0  0  0  0  0  0
    5.2224   -0.6592    0.0000 C   0  0  0  0  0  0  0  0  0  0  0  0
    4.5080   -1.8967    0.0000 C   0  0  0  0  0  0  0  0  0  0  0  0
    5.2224   -1.4842    0.0000 C   0  0  0  0  0  0  0  0  0  0  0  0
    3.0791   -0.2467    0.0000 C   0  0  0  0  0  0  0  0  0  0  0  0
    4.9205    0.4678    0.0000 C   0  0  0  0  0  0  0  0  0  0  0  0
    5.7455    0.4678    0.0000 C   0  0  0  0  0  0  0  0  0  0  0  0
    4.5080    1.1823    0.0000 C   0  0  0  0  0  0  0  0  0  0  0  0
    1.6500   -0.2467    0.0000 C   0  0  0  0  0  0  0  0  0  0  0  0
    2.3645   -1.4842    0.0000 C   0  0  0  0  0  0  0  0  0  0  0  0
    6.1580    1.1823    0.0000 C   0  0  0  0  0  0  0  0  0  0  0  0
    4.9205    1.8967    0.0000 C   0  0  0  0  0  0  0  0  0  0  0  0
    5.7455    1.8967    0.0000 C   0  0  0  0  0  0  0  0  0  0  0  0
    7.3955    1.8967    0.0000 C   0  0  0  0  0  0  0  0  0  0  0  0
  5  1  1  6  0  0  0
  2 16  1  0  0  0  0
  2 19  1  0  0  0  0
  3 10  1  0  0  0  0
  3 14  1  0  0  0  0
  3 15  1  0  0  0  0
  4  5  1  0  0  0  0
  4  6  1  0  0  0  0
  4 10  1  6  0  0  0
  5  7  1  0  0  0  0
  5 11  1  0  0  0  0
  6  8  1  0  0  0  0
  7  9  1  0  0  0  0
  8  9  1  0  0  0  0
 11 12  2  0  0  0  0
 11 13  1  0  0  0  0
 12 16  1  0  0  0  0
 13 17  2  0  0  0  0
 16 18  2  0  0  0  0
 17 18  1  0  0  0  0
M  END
>  <DRUGBANK_ID>
DB00193

>  <DRUG_GROUPS>
approved; investigational

>  <GENERIC_NAME>
Tramadol

>  <SYNONYMS>
Tramadol HCl; Tramadol hydrochloride; Tramadolum [INN-Latin]; Tramodol Hcl

>  <BRANDS>
Crispin; Ralivia ER; Ralivia Flashtab; Tramadol HCl BP/EP; Tramal; Tridural; Ultram; Ultram ER

>  <CHEMICAL_FORMULA>
C16H25NO2

>  <MOLECULAR_WEIGHT>
263.3752

>  <EXACT_MASS>
263.188529049

>  <IUPAC_NAME>
(1R,2R)-2-[(dimethylamino)methyl]-1-(3-methoxyphenyl)cyclohexan-1-ol

>  <INCHI_IDENTIFIER>
InChI=1S/C16H25NO2/c1-17(2)12-14-7-4-5-10-16(14,18)13-8-6-9-15(11-13)19-3/h6,8-9,11,14,18H,4-5,7,10,12H2,1-3H3/t14-,16+/m1/s1

>  <INCHI_KEY>
InChIKey=TVYLLZQTGLZFBW-ZBFHGGJFSA-N

>  <SMILES>
COC1=CC=CC(=C1)[C@@]1(O)CCCC[C@@H]1CN(C)C

>  <JCHEM_ACCEPTOR_COUNT>
3

>  <JCHEM_DONOR_COUNT>
1

>  <JCHEM_ACIDIC_PKA>
13.8

>  <JCHEM_BASIC_PKA>
9.23

>  <JCHEM_PHYSIOLOGICAL_CHARGE>
1

>  <ALOGPS_LOGP>
2.71

>  <JCHEM_LOGP>
2.45

>  <ALOGPS_LOGS>
-2.5

>  <JCHEM_POLARIZABILITY>
30.45

>  <JCHEM_POLAR_SURFACE_AREA>
32.7

>  <JCHEM_REFRACTIVITY>
78.27

>  <JCHEM_ROTATABLE_BOND_COUNT>
4

>  <ALOGPS_SOLUBILITY>
7.50e-01 g/l

$$$$
32326
  Mrv0541 02231214302D          

 19 21  0  0  1  0            999 V2000
    3.6940    3.6075    0.0000 O   0  0  0  0  0  0  0  0  0  0  0  0
    1.6001    4.0236    0.0000 O   0  0  0  0  0  0  0  0  0  0  0  0
    2.6576    5.4739    0.0000 O   0  0  0  0  0  0  0  0  0  0  0  0
    5.1168    4.5794    0.0000 O   0  0  0  0  0  0  0  0  0  0  0  0
    2.6526    2.5697    0.0000 N   0  0  0  0  0  0  0  0  0  0  0  0
    2.6526    1.2419    0.0000 N   0  0  0  0  0  0  0  0  0  0  0  0
    1.1575    2.7308    0.0000 N   0  0  0  0  0  0  0  0  0  0  0  0
    0.4430    1.4933    0.0000 N   0  0  0  0  0  0  0  0  0  0  0  0
    1.1575    0.2558    0.0000 N   0  0  0  0  0  0  0  0  0  0  0  0
    2.4251    4.0222    0.0000 C   0  0  2  0  0  0  0  0  0  0  0  0
    2.9089    3.3538    0.0000 C   0  0  1  0  0  0  0  0  0  0  0  0
    2.9112    4.6888    0.0000 C   0  0  1  0  0  0  0  0  0  0  0  0
    3.6954    4.4325    0.0000 C   0  0  1  0  0  0  0  0  0  0  0  0
    4.3637    4.9163    0.0000 C   0  0  0  0  0  0  0  0  0  0  0  0
    1.8720    2.3183    0.0000 C   0  0  0  0  0  0  0  0  0  0  0  0
    3.1341    1.9058    0.0000 C   0  0  0  0  0  0  0  0  0  0  0  0
    1.8720    1.4933    0.0000 C   0  0  0  0  0  0  0  0  0  0  0  0
    1.1575    1.0808    0.0000 C   0  0  0  0  0  0  0  0  0  0  0  0
    0.4430    2.3183    0.0000 C   0  0  0  0  0  0  0  0  0  0  0  0
  1 11  1  0  0  0  0
  1 13  1  0  0  0  0
 10  2  1  1  0  0  0
 12  3  1  6  0  0  0
  4 14  1  0  0  0  0
 11  5  1  1  0  0  0
  5 15  1  0  0  0  0
  5 16  1  0  0  0  0
  6 16  2  0  0  0  0
  6 17  1  0  0  0  0
  7 15  1  0  0  0  0
  7 19  2  0  0  0  0
  8 18  2  0  0  0  0
  8 19  1  0  0  0  0
  9 18  1  0  0  0  0
 10 11  1  0  0  0  0
 10 12  1  0  0  0  0
 12 13  1  0  0  0  0
 13 14  1  1  0  0  0
 15 17  2  0  0  0  0
 17 18  1  0  0  0  0
M  END
>  <DRUGBANK_ID>
DB00194

>  <DRUG_GROUPS>
approved

>  <GENERIC_NAME>
Vidarabine

>  <SYNONYMS>
9-beta-D-arabinofuranosyl-adenine; Adenine Arabinoside; Ara-A; Ara-Atp; Araadenosine; Arabinoside Adenine; Arabinosyl Adenine; Arabinosyladenine

>  <BRANDS>
Arasena-A; Spongoadenosine; Vidarabin; Vira-A

>  <CHEMICAL_FORMULA>
C10H13N5O4

>  <MOLECULAR_WEIGHT>
267.2413

>  <EXACT_MASS>
267.096753929

>  <IUPAC_NAME>
(2R,3S,4S,5R)-2-(6-amino-9H-purin-9-yl)-5-(hydroxymethyl)oxolane-3,4-diol

>  <INCHI_IDENTIFIER>
InChI=1S/C10H13N5O4/c11-8-5-9(13-2-12-8)15(3-14-5)10-7(18)6(17)4(1-16)19-10/h2-4,6-7,10,16-18H,1H2,(H2,11,12,13)/t4-,6-,7+,10-/m1/s1

>  <INCHI_KEY>
InChIKey=OIRDTQYFTABQOQ-UHTZMRCNSA-N

>  <SMILES>
NC1=NC=NC2=C1N=CN2[C@@H]1O[C@H](CO)[C@@H](O)[C@@H]1O

>  <JCHEM_ACCEPTOR_COUNT>
8

>  <JCHEM_DONOR_COUNT>
4

>  <JCHEM_ACIDIC_PKA>
12.45

>  <JCHEM_BASIC_PKA>
4.99

>  <JCHEM_PHYSIOLOGICAL_CHARGE>
0

>  <ALOGPS_LOGP>
-1.2

>  <JCHEM_LOGP>
-2.1

>  <ALOGPS_LOGS>
-1.3

>  <JCHEM_POLARIZABILITY>
24.49

>  <JCHEM_POLAR_SURFACE_AREA>
139.54

>  <JCHEM_REFRACTIVITY>
63.2

>  <JCHEM_ROTATABLE_BOND_COUNT>
2

>  <ALOGPS_SOLUBILITY>
1.40e+01 g/l

$$$$
195
  Mrv0541 02231214302D          

 22 23  0  0  1  0            999 V2000
    2.7770   -3.1491    0.0000 O   0  0  0  0  0  0  0  0  0  0  0  0
    3.4916    1.3885    0.0000 O   0  0  0  0  0  0  0  0  0  0  0  0
    3.4916    3.0385    0.0000 O   0  0  0  0  0  0  0  0  0  0  0  0
    4.9205    3.8636    0.0000 N   0  0  0  0  0  0  0  0  0  0  0  0
    2.0625   -4.3866    0.0000 C   0  0  0  0  0  0  0  0  0  0  0  0
    2.4751   -5.1011    0.0000 C   0  0  0  0  0  0  0  0  0  0  0  0
    1.6500   -5.1011    0.0000 C   0  0  0  0  0  0  0  0  0  0  0  0
    2.0625   -3.5616    0.0000 C   0  0  0  0  0  0  0  0  0  0  0  0
    2.7770   -2.3241    0.0000 C   0  0  0  0  0  0  0  0  0  0  0  0
    3.4916   -1.9116    0.0000 C   0  0  0  0  0  0  0  0  0  0  0  0
    3.4916   -1.0865    0.0000 C   0  0  0  0  0  0  0  0  0  0  0  0
    4.2060    2.6260    0.0000 C   0  0  0  0  0  0  0  0  0  0  0  0
    4.9205    3.0385    0.0000 C   0  0  0  0  0  0  0  0  0  0  0  0
    5.6350    4.2761    0.0000 C   0  0  0  0  0  0  0  0  0  0  0  0
    4.2060    1.8010    0.0000 C   0  0  0  0  0  0  0  0  0  0  0  0
    2.7770   -0.6740    0.0000 C   0  0  0  0  0  0  0  0  0  0  0  0
    4.2060   -0.6740    0.0000 C   0  0  0  0  0  0  0  0  0  0  0  0
    3.4916    0.5635    0.0000 C   0  0  0  0  0  0  0  0  0  0  0  0
    6.3495    3.8636    0.0000 C   0  0  0  0  0  0  0  0  0  0  0  0
    5.6350    5.1011    0.0000 C   0  0  0  0  0  0  0  0  0  0  0  0
    2.7770    0.1510    0.0000 C   0  0  0  0  0  0  0  0  0  0  0  0
    4.2060    0.1510    0.0000 C   0  0  0  0  0  0  0  0  0  0  0  0
  1  8  1  0  0  0  0
  1  9  1  0  0  0  0
  2 15  1  0  0  0  0
  2 18  1  0  0  0  0
  3 12  1  0  0  0  0
  4 13  1  0  0  0  0
  4 14  1  0  0  0  0
  5  6  1  0  0  0  0
  5  7  1  0  0  0  0
  5  8  1  0  0  0  0
  6  7  1  0  0  0  0
  9 10  1  0  0  0  0
 10 11  1  0  0  0  0
 11 16  2  0  0  0  0
 11 17  1  0  0  0  0
 12 13  1  0  0  0  0
 12 15  1  0  0  0  0
 14 19  1  0  0  0  0
 14 20  1  0  0  0  0
 16 21  1  0  0  0  0
 17 22  2  0  0  0  0
 18 21  2  0  0  0  0
 18 22  1  0  0  0  0
M  END
>  <DRUGBANK_ID>
DB00195

>  <DRUG_GROUPS>
approved

>  <GENERIC_NAME>
Betaxolol

>  <SYNONYMS>
Betaxolol HCL; Betaxololum [INN-Latin]

>  <BRANDS>
Betaxon; Betoptic; Betoptic S; Kerlone

>  <CHEMICAL_FORMULA>
C18H29NO3

>  <MOLECULAR_WEIGHT>
307.4278

>  <EXACT_MASS>
307.214743799

>  <IUPAC_NAME>
(3-{4-[2-(cyclopropylmethoxy)ethyl]phenoxy}-2-hydroxypropyl)(propan-2-yl)amine

>  <INCHI_IDENTIFIER>
InChI=1S/C18H29NO3/c1-14(2)19-11-17(20)13-22-18-7-5-15(6-8-18)9-10-21-12-16-3-4-16/h5-8,14,16-17,19-20H,3-4,9-13H2,1-2H3

>  <INCHI_KEY>
InChIKey=NWIUTZDMDHAVTP-UHFFFAOYSA-N

>  <SMILES>
CC(C)NCC(O)COC1=CC=C(CCOCC2CC2)C=C1

>  <JCHEM_ACCEPTOR_COUNT>
4

>  <JCHEM_DONOR_COUNT>
2

>  <JCHEM_ACIDIC_PKA>
14.09

>  <JCHEM_BASIC_PKA>
9.67

>  <JCHEM_PHYSIOLOGICAL_CHARGE>
1

>  <ALOGPS_LOGP>
3

>  <JCHEM_LOGP>
2.54

>  <ALOGPS_LOGS>
-4

>  <JCHEM_POLARIZABILITY>
37.05

>  <JCHEM_POLAR_SURFACE_AREA>
50.72

>  <JCHEM_REFRACTIVITY>
88.64

>  <JCHEM_ROTATABLE_BOND_COUNT>
11

>  <ALOGPS_SOLUBILITY>
2.98e-02 g/l

$$$$
196
  Mrv0541 02231214302D          

 22 24  0  0  0  0            999 V2000
    1.6500   -0.2897    0.0000 F   0  0  0  0  0  0  0  0  0  0  0  0
    3.0790   -2.7647    0.0000 F   0  0  0  0  0  0  0  0  0  0  0  0
    2.2540    0.5353    0.0000 O   0  0  0  0  0  0  0  0  0  0  0  0
    3.7934    1.7728    0.0000 N   0  0  0  0  0  0  0  0  0  0  0  0
    4.6184    0.1228    0.0000 N   0  0  0  0  0  0  0  0  0  0  0  0
    4.5471    1.4371    0.0000 N   0  0  0  0  0  0  0  0  0  0  0  0
    5.3721    0.4583    0.0000 N   0  0  0  0  0  0  0  0  0  0  0  0
    4.6867    2.7647    0.0000 N   0  0  0  0  0  0  0  0  0  0  0  0
    5.5117   -0.8693    0.0000 N   0  0  0  0  0  0  0  0  0  0  0  0
    3.0790    0.5353    0.0000 C   0  0  0  0  0  0  0  0  0  0  0  0
    3.0790    1.3603    0.0000 C   0  0  0  0  0  0  0  0  0  0  0  0
    3.9040    0.5353    0.0000 C   0  0  0  0  0  0  0  0  0  0  0  0
    3.0790   -0.2897    0.0000 C   0  0  0  0  0  0  0  0  0  0  0  0
    2.3644   -0.7022    0.0000 C   0  0  0  0  0  0  0  0  0  0  0  0
    3.7934   -0.7022    0.0000 C   0  0  0  0  0  0  0  0  0  0  0  0
    2.3644   -1.5272    0.0000 C   0  0  0  0  0  0  0  0  0  0  0  0
    3.7934   -1.5272    0.0000 C   0  0  0  0  0  0  0  0  0  0  0  0
    3.8796    2.5932    0.0000 C   0  0  0  0  0  0  0  0  0  0  0  0
    4.7046   -0.6977    0.0000 C   0  0  0  0  0  0  0  0  0  0  0  0
    3.0790   -1.9397    0.0000 C   0  0  0  0  0  0  0  0  0  0  0  0
    5.0992    2.0503    0.0000 C   0  0  0  0  0  0  0  0  0  0  0  0
    5.9242   -0.1548    0.0000 C   0  0  0  0  0  0  0  0  0  0  0  0
  1 14  1  0  0  0  0
  2 20  1  0  0  0  0
  3 10  1  0  0  0  0
  4  6  1  0  0  0  0
  4 11  1  0  0  0  0
  4 18  1  0  0  0  0
  5  7  1  0  0  0  0
  5 12  1  0  0  0  0
  5 19  1  0  0  0  0
  6 21  2  0  0  0  0
  7 22  2  0  0  0  0
  8 18  2  0  0  0  0
  8 21  1  0  0  0  0
  9 19  2  0  0  0  0
  9 22  1  0  0  0  0
 10 11  1  0  0  0  0
 10 12  1  0  0  0  0
 10 13  1  0  0  0  0
 13 14  2  0  0  0  0
 13 15  1  0  0  0  0
 14 16  1  0  0  0  0
 15 17  2  0  0  0  0
 16 20  2  0  0  0  0
 17 20  1  0  0  0  0
M  END
>  <DRUGBANK_ID>
DB00196

>  <DRUG_GROUPS>
approved

>  <GENERIC_NAME>
Fluconazole

>  <BRANDS>
Biocanol; Biozolene; Diflucan; Elazor; Flucazol; Flucostat; Flukezol; Flunizol; Pritenzol; Triflucan

>  <CHEMICAL_FORMULA>
C13H12F2N6O

>  <MOLECULAR_WEIGHT>
306.2708

>  <EXACT_MASS>
306.104065446

>  <IUPAC_NAME>
2-(2,4-difluorophenyl)-1,3-bis(1H-1,2,4-triazol-1-yl)propan-2-ol

>  <INCHI_IDENTIFIER>
InChI=1S/C13H12F2N6O/c14-10-1-2-11(12(15)3-10)13(22,4-20-8-16-6-18-20)5-21-9-17-7-19-21/h1-3,6-9,22H,4-5H2

>  <INCHI_KEY>
InChIKey=RFHAOTPXVQNOHP-UHFFFAOYSA-N

>  <SMILES>
OC(CN1C=NC=N1)(CN1C=NC=N1)C1=C(F)C=C(F)C=C1

>  <JCHEM_ACCEPTOR_COUNT>
5

>  <JCHEM_DONOR_COUNT>
1

>  <JCHEM_ACIDIC_PKA>
12.71

>  <JCHEM_BASIC_PKA>
2.56

>  <JCHEM_PHYSIOLOGICAL_CHARGE>
0

>  <ALOGPS_LOGP>
0.58

>  <JCHEM_LOGP>
0.56

>  <ALOGPS_LOGS>
-2.3

>  <JCHEM_POLARIZABILITY>
26.52

>  <JCHEM_POLAR_SURFACE_AREA>
81.65

>  <JCHEM_REFRACTIVITY>
97.2

>  <JCHEM_ROTATABLE_BOND_COUNT>
5

>  <ALOGPS_SOLUBILITY>
1.39e+00 g/l

$$$$
65028
  Mrv0541 02231214302D          

 22 22  0  0  1  0            999 V2000
    3.7935    1.0313    0.0000 O   0  0  0  0  0  0  0  0  0  0  0  0
    4.5080   -1.8563    0.0000 O   0  0  0  0  0  0  0  0  0  0  0  0
    5.9370   -1.8563    0.0000 O   0  0  0  0  0  0  0  0  0  0  0  0
    3.7935    1.8563    0.0000 O   0  0  0  0  0  0  0  0  0  0  0  0
    5.2224    1.8563    0.0000 N   0  0  0  0  0  0  0  0  0  0  0  0
    6.6515    1.0313    0.0000 N   0  0  0  0  0  0  0  0  0  0  0  0
    5.2224    1.0313    0.0000 C   0  0  2  0  0  0  0  0  0  0  0  0
    5.9370    0.6188    0.0000 C   0  0  2  0  0  0  0  0  0  0  0  0
    4.5080    0.6188    0.0000 C   0  0  1  0  0  0  0  0  0  0  0  0
    5.9370   -0.2063    0.0000 C   0  0  0  0  0  0  0  0  0  0  0  0
    4.5080   -0.2063    0.0000 C   0  0  0  0  0  0  0  0  0  0  0  0
    5.2224   -0.6188    0.0000 C   0  0  0  0  0  0  0  0  0  0  0  0
    3.0790    0.6188    0.0000 C   0  0  0  0  0  0  0  0  0  0  0  0
    2.3645    1.0313    0.0000 C   0  0  0  0  0  0  0  0  0  0  0  0
    3.0790   -0.2063    0.0000 C   0  0  0  0  0  0  0  0  0  0  0  0
    5.2224   -1.4438    0.0000 C   0  0  0  0  0  0  0  0  0  0  0  0
    4.5080    2.2688    0.0000 C   0  0  0  0  0  0  0  0  0  0  0  0
    1.6500    0.6188    0.0000 C   0  0  0  0  0  0  0  0  0  0  0  0
    2.3645   -0.6188    0.0000 C   0  0  0  0  0  0  0  0  0  0  0  0
    4.5080    3.0938    0.0000 C   0  0  0  0  0  0  0  0  0  0  0  0
    4.5080   -2.6813    0.0000 C   0  0  0  0  0  0  0  0  0  0  0  0
    3.7935   -3.0938    0.0000 C   0  0  0  0  0  0  0  0  0  0  0  0
  9  1  1  1  0  0  0
  1 13  1  0  0  0  0
  2 16  1  0  0  0  0
  2 21  1  0  0  0  0
  3 16  2  0  0  0  0
  4 17  2  0  0  0  0
  7  5  1  6  0  0  0
  5 17  1  0  0  0  0
  8  6  1  1  0  0  0
  7  8  1  0  0  0  0
  7  9  1  0  0  0  0
  8 10  1  0  0  0  0
  9 11  1  0  0  0  0
 10 12  1  0  0  0  0
 11 12  2  0  0  0  0
 12 16  1  0  0  0  0
 13 14  1  0  0  0  0
 13 15  1  0  0  0  0
 14 18  1  0  0  0  0
 15 19  1  0  0  0  0
 17 20  1  0  0  0  0
 21 22  1  0  0  0  0
M  END
>  <DRUGBANK_ID>
DB00198

>  <DRUG_GROUPS>
approved

>  <GENERIC_NAME>
Oseltamivir

>  <SYNONYMS>
Oseltamivir phosphate

>  <BRANDS>
Tamiflu

>  <CHEMICAL_FORMULA>
C16H28N2O4

>  <MOLECULAR_WEIGHT>
312.4045

>  <EXACT_MASS>
312.204907394

>  <IUPAC_NAME>
ethyl (3R,4R,5S)-5-amino-4-acetamido-3-(pentan-3-yloxy)cyclohex-1-ene-1-carboxylate

>  <INCHI_IDENTIFIER>
InChI=1S/C16H28N2O4/c1-5-12(6-2)22-14-9-11(16(20)21-7-3)8-13(17)15(14)18-10(4)19/h9,12-15H,5-8,17H2,1-4H3,(H,18,19)/t13-,14+,15+/m0/s1

>  <INCHI_KEY>
InChIKey=VSZGPKBBMSAYNT-RRFJBIMHSA-N

>  <SMILES>
CCOC(=O)C1=C[C@@H](OC(CC)CC)[C@H](NC(C)=O)[C@@H](N)C1

>  <JCHEM_ACCEPTOR_COUNT>
4

>  <JCHEM_DONOR_COUNT>
2

>  <JCHEM_ACIDIC_PKA>
14.03

>  <JCHEM_BASIC_PKA>
9.31

>  <JCHEM_PHYSIOLOGICAL_CHARGE>
1

>  <ALOGPS_LOGP>
1.3

>  <JCHEM_LOGP>
1.16

>  <ALOGPS_LOGS>
-2.7

>  <JCHEM_POLARIZABILITY>
34.65

>  <JCHEM_POLAR_SURFACE_AREA>
90.65

>  <JCHEM_REFRACTIVITY>
84.2

>  <JCHEM_ROTATABLE_BOND_COUNT>
8

>  <ALOGPS_SOLUBILITY>
6.86e-01 g/l

$$$$
12560
  Mrv0541 02231214302D          

 51 53  0  0  1  0            999 V2000
    4.5376   -0.9760    0.0000 O   0  0  0  0  0  0  0  0  0  0  0  0
    4.5376    0.4529    0.0000 O   0  0  0  0  0  0  0  0  0  0  0  0
    5.9887   -2.4873    0.0000 O   0  0  0  0  0  0  0  0  0  0  0  0
    4.5376   -2.4050    0.0000 O   0  0  0  0  0  0  0  0  0  0  0  0
    3.3001    1.1675    0.0000 O   0  0  0  0  0  0  0  0  0  0  0  0
    7.0127    1.8819    0.0000 O   0  0  0  0  0  0  0  0  0  0  0  0
    4.1251    3.4214    0.0000 O   0  0  0  0  0  0  0  0  0  0  0  0
    2.8876   -0.9760    0.0000 O   0  0  0  0  0  0  0  0  0  0  0  0
    2.8876    3.3109    0.0000 O   0  0  0  0  0  0  0  0  0  0  0  0
    9.0471    1.3810    0.0000 O   0  0  0  0  0  0  0  0  0  0  0  0
    7.2057    0.9833    0.0000 O   0  0  0  0  0  0  0  0  0  0  0  0
    8.2502   -1.6905    0.0000 O   0  0  0  0  0  0  0  0  0  0  0  0
    7.0127    0.4529    0.0000 O   0  0  0  0  0  0  0  0  0  0  0  0
    2.0625   -2.4050    0.0000 N   0  0  0  0  0  0  0  0  0  0  0  0
    5.3626   -0.9760    0.0000 C   0  0  2  0  0  0  0  0  0  0  0  0
    5.7751   -0.2615    0.0000 C   0  0  2  0  0  0  0  0  0  0  0  0
    5.7751   -1.6905    0.0000 C   0  0  1  0  0  0  0  0  0  0  0  0
    5.3626    0.4529    0.0000 C   0  0  1  0  0  0  0  0  0  0  0  0
    6.6001   -1.6905    0.0000 C   0  0  0  0  0  0  0  0  0  0  0  0
    5.7751    1.1675    0.0000 C   0  0  2  0  0  0  0  0  0  0  0  0
    7.0127   -0.9760    0.0000 C   0  0  2  0  0  0  0  0  0  0  0  0
    4.1251   -1.6905    0.0000 C   0  0  2  0  0  0  0  0  0  0  0  0
    4.1251    1.1675    0.0000 C   0  0  2  0  0  0  0  0  0  0  0  0
    4.1251    2.5964    0.0000 C   0  0  2  0  0  0  0  0  0  0  0  0
    6.6001   -0.2615    0.0000 C   0  0  0  0  0  0  0  0  0  0  0  0
    3.3001   -1.6905    0.0000 C   0  0  1  0  0  0  0  0  0  0  0  0
    2.8876   -2.4050    0.0000 C   0  0  2  0  0  0  0  0  0  0  0  0
    4.5376    1.8819    0.0000 C   0  0  0  0  0  0  0  0  0  0  0  0
    5.1918   -2.2739    0.0000 C   0  0  0  0  0  0  0  0  0  0  0  0
    3.3001    2.5964    0.0000 C   0  0  2  0  0  0  0  0  0  0  0  0
    8.2502   -0.2615    0.0000 C   0  0  2  0  0  0  0  0  0  0  0  0
    8.2502    1.1675    0.0000 C   0  0  1  0  0  0  0  0  0  0  0  0
    3.3001   -3.1195    0.0000 C   0  0  0  0  0  0  0  0  0  0  0  0
    7.8377    0.4529    0.0000 C   0  0  2  0  0  0  0  0  0  0  0  0
    2.8876    1.8819    0.0000 C   0  0  2  0  0  0  0  0  0  0  0  0
    7.8377   -0.9760    0.0000 C   0  0  0  0  0  0  0  0  0  0  0  0
    4.1251   -3.1195    0.0000 C   0  0  1  0  0  0  0  0  0  0  0  0
    7.8377    1.8819    0.0000 C   0  0  1  0  0  0  0  0  0  0  0  0
    6.6001    1.1675    0.0000 C   0  0  0  0  0  0  0  0  0  0  0  0
    5.3626    1.8819    0.0000 C   0  0  0  0  0  0  0  0  0  0  0  0
    6.1876   -0.9760    0.0000 C   0  0  0  0  0  0  0  0  0  0  0  0
    4.8396    3.0089    0.0000 C   0  0  0  0  0  0  0  0  0  0  0  0
    9.0752   -0.2615    0.0000 C   0  0  0  0  0  0  0  0  0  0  0  0
    8.9260    0.6943    0.0000 C   0  0  0  0  0  0  0  0  0  0  0  0
    8.2502    2.5964    0.0000 C   0  0  0  0  0  0  0  0  0  0  0  0
    2.0625    1.8819    0.0000 C   0  0  0  0  0  0  0  0  0  0  0  0
    4.5376   -3.8339    0.0000 C   0  0  0  0  0  0  0  0  0  0  0  0
    1.6500   -3.1195    0.0000 C   0  0  0  0  0  0  0  0  0  0  0  0
    1.6500   -1.6905    0.0000 C   0  0  0  0  0  0  0  0  0  0  0  0
    7.8377    3.3109    0.0000 C   0  0  0  0  0  0  0  0  0  0  0  0
    4.8396    3.8339    0.0000 C   0  0  0  0  0  0  0  0  0  0  0  0
 15  1  1  6  0  0  0
 22  1  1  6  0  0  0
 18  2  1  6  0  0  0
 23  2  1  6  0  0  0
 17  3  1  1  0  0  0
  4 22  1  0  0  0  0
  4 37  1  0  0  0  0
  5 23  1  0  0  0  0
  5 35  1  0  0  0  0
  6 38  1  0  0  0  0
  6 39  1  0  0  0  0
 24  7  1  6  0  0  0
  7 51  1  0  0  0  0
 26  8  1  1  0  0  0
 30  9  1  6  0  0  0
 32 10  1  1  0  0  0
 34 11  1  1  0  0  0
 12 36  2  0  0  0  0
 13 39  2  0  0  0  0
 27 14  1  6  0  0  0
 14 48  1  0  0  0  0
 14 49  1  0  0  0  0
 15 16  1  0  0  0  0
 15 17  1  0  0  0  0
 16 18  1  0  0  0  0
 16 25  1  6  0  0  0
 17 19  1  0  0  0  0
 17 29  1  0  0  0  0
 18 20  1  0  0  0  0
 19 21  1  0  0  0  0
 20 39  1  0  0  0  0
 20 40  1  1  0  0  0
 21 36  1  0  0  0  0
 21 41  1  1  0  0  0
 22 26  1  0  0  0  0
 23 28  1  0  0  0  0
 24 28  1  0  0  0  0
 24 30  1  0  0  0  0
 24 42  1  0  0  0  0
 26 27  1  0  0  0  0
 27 33  1  0  0  0  0
 30 35  1  0  0  0  0
 31 34  1  0  0  0  0
 31 36  1  0  0  0  0
 31 43  1  1  0  0  0
 32 34  1  0  0  0  0
 32 38  1  0  0  0  0
 32 44  1  0  0  0  0
 33 37  1  0  0  0  0
 35 46  1  1  0  0  0
 37 47  1  6  0  0  0
 38 45  1  6  0  0  0
 45 50  1  0  0  0  0
M  END
>  <DRUGBANK_ID>
DB00199

>  <DRUG_GROUPS>
approved

>  <GENERIC_NAME>
Erythromycin

>  <SYNONYMS>
EM; Erythrocin Stearate; Erythromycin ethylsuccinate; Erythromycin glucoheptonate; Erythromycin lactobionate; Erythromycin oxime; Erythromycin Stearate

>  <BRANDS>
Abboticin; Abomacetin; Ak-mycin; Akne-Mycin; Aknin; Benzamycin; Benzamycin Pak; Bristamycin; Dotycin; Dumotrycin; E-Base; E-Glades; E-Mycin; E-Solve 2; Emgel; EMU; Eritrocina; Ermycin; Ery-Sol; Ery-Tab; Eryc; Eryc 125; Eryc Sprinkles; Erycen; Erycette; Erycin; Erycinum; Eryderm; Erygel; Erymax; Erypar; Erythra-Derm; Erythro; Erythro-Statin; Erythrogran; Erythroguent; Erythromast 36; Erythromid; Erythromycin A; Erythromycin B; Ethril 250; Ilocaps; Ilosone; Ilotycin; Ilotycin Gluceptate; IndermRetcin; Kesso-Mycin; Mephamycin; Pantomicina; Pfizer-e; Propiocine; R-P Mycin; Robimycin; Sansac; Stiemycin; Taimoxin-F; Theramycin Z; Torlamicina; Wemid; Wyamycin S

>  <CHEMICAL_FORMULA>
C37H67NO13

>  <MOLECULAR_WEIGHT>
733.9268

>  <EXACT_MASS>
733.461241235

>  <IUPAC_NAME>
(3R,4S,5S,6R,7R,9R,11R,12R,13S,14R)-6-{[(2S,3R,4S,6R)-4-(dimethylamino)-3-hydroxy-6-methyloxan-2-yl]oxy}-14-ethyl-7,12,13-trihydroxy-4-{[(2R,4R,5S,6S)-5-hydroxy-4-methoxy-4,6-dimethyloxan-2-yl]oxy}-3,5,7,9,11,13-hexamethyl-1-oxacyclotetradecane-2,10-dione

>  <INCHI_IDENTIFIER>
InChI=1S/C37H67NO13/c1-14-25-37(10,45)30(41)20(4)27(39)18(2)16-35(8,44)32(51-34-28(40)24(38(11)12)15-19(3)47-34)21(5)29(22(6)33(43)49-25)50-26-17-36(9,46-13)31(42)23(7)48-26/h18-26,28-32,34,40-42,44-45H,14-17H2,1-13H3/t18-,19-,20+,21+,22-,23+,24+,25-,26+,28-,29+,30-,31+,32-,34+,35-,36-,37-/m1/s1

>  <INCHI_KEY>
InChIKey=ULGZDMOVFRHVEP-RWJQBGPGSA-N

>  <SMILES>
CC[C@H]1OC(=O)[C@H](C)[C@@H](O[C@H]2C[C@@](C)(OC)[C@@H](O)[C@H](C)O2)[C@H](C)[C@@H](O[C@@H]2O[C@H](C)C[C@@H]([C@H]2O)N(C)C)[C@](C)(O)C[C@@H](C)C(=O)[C@H](C)[C@@H](O)[C@]1(C)O

>  <JCHEM_ACCEPTOR_COUNT>
13

>  <JCHEM_DONOR_COUNT>
5

>  <JCHEM_ACIDIC_PKA>
12.44

>  <JCHEM_BASIC_PKA>
8.38

>  <JCHEM_PHYSIOLOGICAL_CHARGE>
1

>  <ALOGPS_LOGP>
2.37

>  <JCHEM_LOGP>
2.6

>  <ALOGPS_LOGS>
-3.2

>  <JCHEM_POLARIZABILITY>
78.21

>  <JCHEM_POLAR_SURFACE_AREA>
193.91

>  <JCHEM_REFRACTIVITY>
186.04

>  <JCHEM_ROTATABLE_BOND_COUNT>
7

>  <ALOGPS_SOLUBILITY>
4.59e-01 g/l

$$$$

  Mrv0541 04191212102D          

 94105  0  0  1  0            999 V2000
   -0.6472   -1.5655    0.0000 C   0  0  0  0  0  0  0  0  0  0  0  0
   -0.7591   -0.7620    0.0000 N   0  0  0  0  0  0  0  0  0  0  0  0
   -0.7591    0.9361    0.0000 N   0  0  0  0  0  0  0  0  0  0  0  0
   -0.6472    1.7396    0.0000 C   0  0  0  0  0  0  0  0  0  0  0  0
   -1.3596    2.1164    0.0000 C   0  0  1  0  0  0  0  0  0  0  0  0
   -1.4780    2.9329    0.0000 C   0  0  0  0  0  0  0  0  0  0  0  0
   -0.8302    3.4437    0.0000 C   0  0  0  0  0  0  0  0  0  0  0  0
   -0.9487    4.2601    0.0000 C   0  0  0  0  0  0  0  0  0  0  0  0
   -1.7149    4.5657    0.0000 O   0  0  0  0  0  0  0  0  0  0  0  0
    0.7940    1.7396    0.0000 C   0  0  0  0  0  0  0  0  0  0  0  0
    0.9183    0.9361    0.0000 N   0  0  0  0  0  0  0  0  0  0  0  0
    1.7425    0.7870    0.0000 C   0  0  0  0  0  0  0  0  0  0  0  0
    2.1566    0.0870    0.0000 C   0  0  0  0  0  0  0  0  0  0  0  0
    1.7425   -0.6171    0.0000 C   0  0  0  0  0  0  0  0  0  0  0  0
    0.9183   -0.7620    0.0000 N   0  0  0  0  0  0  0  0  0  0  0  0
    0.7940   -1.5655    0.0000 C   0  0  0  0  0  0  0  0  0  0  0  0
    1.5313   -1.9465    0.0000 C   0  0  1  0  0  0  0  0  0  0  0  0
    1.6536   -2.7624    0.0000 C   0  0  0  0  0  0  0  0  0  0  0  0
    2.4214   -3.0643    0.0000 C   0  0  0  0  0  0  0  0  0  0  0  0
    2.5437   -3.8802    0.0000 C   0  0  0  0  0  0  0  0  0  0  0  0
    3.3114   -4.1822    0.0000 O   0  0  0  0  0  0  0  0  0  0  0  0
    2.1235   -1.3667    0.0000 C   0  0  0  0  0  0  0  0  0  0  0  0
    2.7616   -1.8896    0.0000 C   0  0  0  0  0  0  0  0  0  0  0  0
    2.8954   -1.0755    0.0000 C   0  0  0  0  0  0  0  0  0  0  0  0
    0.0900    2.1495    0.0000 C   0  0  0  0  0  0  0  0  0  0  0  0
    0.0900    2.9745    0.0000 C   0  0  0  0  0  0  0  0  0  0  0  0
    0.0900   -1.9797    0.0000 C   0  0  0  0  0  0  0  0  0  0  0  0
    0.0900   -2.8047    0.0000 C   0  0  0  0  0  0  0  0  0  0  0  0
   -1.5708   -0.6171    0.0000 C   0  0  1  0  0  0  0  0  0  0  0  0
   -2.3677   -0.4036    0.0000 H   0  0  0  0  0  0  0  0  0  0  0  0
   -1.5708    0.8118    0.0000 C   0  0  2  0  0  0  0  0  0  0  0  0
   -2.3677    0.5983    0.0000 C   0  0  0  0  0  0  0  0  0  0  0  0
   -2.0741   -3.1840    0.0000 C   0  0  0  0  0  0  0  0  0  0  0  0
   -2.7885   -3.5965    0.0000 C   0  0  0  0  0  0  0  0  0  0  0  0
   -3.5030   -3.1840    0.0000 O   0  0  0  0  0  0  0  0  0  0  0  0
   -2.7885   -4.4215    0.0000 N   0  0  0  0  0  0  0  0  0  0  0  0
   -3.5030   -4.8340    0.0000 C   0  0  0  0  0  0  0  0  0  0  0  0
   -3.5030   -5.6590    0.0000 C   0  0  2  0  0  0  0  0  0  0  0  0
   -2.0741   -2.3590    0.0000 C   0  0  0  0  0  0  0  0  0  0  0  0
   -1.3596   -1.9465    0.0000 C   0  0  1  0  0  0  0  0  0  0  0  0
   -1.3596   -2.7715    0.0000 C   0  0  0  0  0  0  0  0  0  0  0  0
   -0.3008    4.7709    0.0000 N   0  0  0  0  0  0  0  0  0  0  0  0
    1.8983   -4.3941    0.0000 N   0  0  0  0  0  0  0  0  0  0  0  0
    2.5001   -5.6865    0.0000 C   0  0  0  0  0  0  0  0  0  0  0  0
    1.6751   -7.1154    0.0000 C   0  0  0  0  0  0  0  0  0  0  0  0
    1.6751   -5.6865    0.0000 C   0  0  0  0  0  0  0  0  0  0  0  0
    0.3694   -5.4090    0.0000 C   0  0  0  0  0  0  0  0  0  0  0  0
    1.2626   -6.4010    0.0000 C   0  0  0  0  0  0  0  0  0  0  0  0
    1.1231   -5.0734    0.0000 N   0  0  0  0  0  0  0  0  0  0  0  0
    0.4556   -6.2294    0.0000 N   0  0  0  0  0  0  0  0  0  0  0  0
    2.9126   -6.4010    0.0000 C   0  0  0  0  0  0  0  0  0  0  0  0
    3.7376   -6.4010    0.0000 C   0  0  0  0  0  0  0  0  0  0  0  0
    2.5001   -7.1154    0.0000 C   0  0  0  0  0  0  0  0  0  0  0  0
    2.9126   -7.8299    0.0000 C   0  0  0  0  0  0  0  0  0  0  0  0
   -0.1575   -6.7815    0.0000 C   0  0  1  0  0  0  0  0  0  0  0  0
   -0.0712   -7.6020    0.0000 O   0  0  0  0  0  0  0  0  0  0  0  0
   -0.8249   -7.9375    0.0000 C   0  0  2  0  0  0  0  0  0  0  0  0
   -0.9964   -8.7445    0.0000 C   0  0  0  0  0  0  0  0  0  0  0  0
   -1.7811   -8.9994    0.0000 O   0  0  0  0  0  0  0  0  0  0  0  0
   -0.9645   -6.6099    0.0000 C   0  0  2  0  0  0  0  0  0  0  0  0
   -1.3000   -5.8563    0.0000 O   0  0  0  0  0  0  0  0  0  0  0  0
   -1.3770   -7.3244    0.0000 C   0  0  2  0  0  0  0  0  0  0  0  0
   -2.1974   -7.4107    0.0000 O   0  0  0  0  0  0  0  0  0  0  0  0
    0.0601    0.1366    0.0000 Co  0  3  0  0  0  0  0  0  0  0  0  0
   -0.4324    2.9513    0.0000 O   0  0  0  0  0  0  0  0  0  0  0  0
   -0.1460    3.5514    0.0000 H   0  0  0  0  0  0  0  0  0  0  0  0
    2.1235    1.5366    0.0000 C   0  0  1  0  0  0  0  0  0  0  0  0
    2.8380    1.9490    0.0000 C   0  0  0  0  0  0  0  0  0  0  0  0
    3.5525    1.5365    0.0000 C   0  0  0  0  0  0  0  0  0  0  0  0
    4.2670    1.9489    0.0000 C   0  0  0  0  0  0  0  0  0  0  0  0
    4.2670    2.7738    0.0000 O   0  0  0  0  0  0  0  0  0  0  0  0
    4.9814    1.5363    0.0000 N   0  0  0  0  0  0  0  0  0  0  0  0
   -1.9518   -1.3667    0.0000 C   0  0  1  0  0  0  0  0  0  0  0  0
   -2.6663   -1.7792    0.0000 C   0  0  0  0  0  0  0  0  0  0  0  0
   -3.3808   -1.3667    0.0000 C   0  0  0  0  0  0  0  0  0  0  0  0
   -3.3808   -0.5418    0.0000 O   0  0  0  0  0  0  0  0  0  0  0  0
   -4.0952   -1.7794    0.0000 N   0  0  0  0  0  0  0  0  0  0  0  0
   -1.9518    1.5366    0.0000 C   0  0  1  0  0  0  0  0  0  0  0  0
   -2.6663    1.1242    0.0000 C   0  0  0  0  0  0  0  0  0  0  0  0
   -3.3808    1.5367    0.0000 C   0  0  0  0  0  0  0  0  0  0  0  0
   -4.0953    1.1243    0.0000 N   0  0  0  0  0  0  0  0  0  0  0  0
   -3.3808    2.3617    0.0000 O   0  0  0  0  0  0  0  0  0  0  0  0
   -2.5352    2.1200    0.0000 C   0  0  0  0  0  0  0  0  0  0  0  0
    1.5313    2.1164    0.0000 C   0  0  1  0  0  0  0  0  0  0  0  0
    2.2458    2.5289    0.0000 C   0  0  0  0  0  0  0  0  0  0  0  0
    1.5313    2.9414    0.0000 C   0  0  0  0  0  0  0  0  0  0  0  0
    2.2458    3.3539    0.0000 C   0  0  0  0  0  0  0  0  0  0  0  0
    2.2459    4.1789    0.0000 O   0  0  0  0  0  0  0  0  0  0  0  0
    2.9602    2.9414    0.0000 N   0  0  0  0  0  0  0  0  0  0  0  0
   -2.7808   -6.8273    0.0000 P   0  0  0  0  0  0  0  0  0  0  0  0
   -2.7808   -6.0023    0.0000 O   0  0  0  0  0  0  0  0  0  0  0  0
   -3.1933   -7.5418    0.0000 O   0  0  0  0  0  0  0  0  0  0  0  0
   -4.2175   -6.0715    0.0000 C   0  0  0  0  0  0  0  0  0  0  0  0
   -3.5777   -7.0408    0.0000 O   0  5  0  0  0  0  0  0  0  0  0  0
 27  1  2  0  0  0  0
  1  2  1  0  0  0  0
 40  1  1  0  0  0  0
 29  2  1  0  0  0  0
  2 64  1  0  0  0  0
 29 73  1  0  0  0  0
 29 31  1  0  0  0  0
 73 40  1  0  0  0  0
 31  3  1  0  0  0  0
 31 78  1  0  0  0  0
  3  4  2  0  0  0  0
  5  4  1  0  0  0  0
  4 25  1  0  0  0  0
  5  6  1  6  0  0  0
 78  5  1  0  0  0  0
  6  7  1  0  0  0  0
  7  8  1  0  0  0  0
  8 42  1  0  0  0  0
  8  9  2  0  0  0  0
 25 10  2  0  0  0  0
 10 11  1  0  0  0  0
 10 84  1  0  0  0  0
 11 12  2  0  0  0  0
 12 13  1  0  0  0  0
 12 67  1  0  0  0  0
 13 14  2  0  0  0  0
 14 15  1  0  0  0  0
 14 22  1  0  0  0  0
 15 16  2  0  0  0  0
 16 17  1  0  0  0  0
 17 18  1  6  0  0  0
 17 22  1  0  0  0  0
 18 19  1  0  0  0  0
 19 20  1  0  0  0  0
 20 43  1  0  0  0  0
 20 21  2  0  0  0  0
 22 23  1  0  0  0  0
 22 24  1  0  0  0  0
 67 84  1  0  0  0  0
 11 64  8  0  0  0  0
  3 64  8  0  0  0  0
 15 64  8  0  0  0  0
 25 26  1  0  0  0  0
 27 28  1  0  0  0  0
 29 30  1  1  0  0  0
 31 32  1  6  0  0  0
 39 33  1  0  0  0  0
 33 34  1  0  0  0  0
 34 36  1  0  0  0  0
 34 35  2  0  0  0  0
 37 36  1  0  0  0  0
 38 37  1  0  0  0  0
 40 39  1  6  0  0  0
 40 41  1  1  0  0  0
 27 16  1  0  0  0  0
 44 46  2  0  0  0  0
 44 51  1  0  0  0  0
 48 45  2  0  0  0  0
 45 53  1  0  0  0  0
 46 49  1  0  0  0  0
 46 48  1  0  0  0  0
 47 50  1  0  0  0  0
 47 49  2  0  0  0  0
 50 48  1  0  0  0  0
 55 50  1  1  0  0  0
 53 51  2  0  0  0  0
 51 52  1  0  0  0  0
 53 54  1  0  0  0  0
 55 60  1  0  0  0  0
 55 56  1  0  0  0  0
 57 56  1  0  0  0  0
 62 57  1  0  0  0  0
 57 58  1  6  0  0  0
 58 59  1  0  0  0  0
 60 62  1  0  0  0  0
 60 61  1  1  0  0  0
 62 63  1  1  0  0  0
 64 65  1  0  0  0  0
 65 66  1  0  0  0  0
 67 68  1  6  0  0  0
 68 69  1  0  0  0  0
 69 70  1  0  0  0  0
 70 72  1  0  0  0  0
 70 71  2  0  0  0  0
 73 74  1  1  0  0  0
 74 75  1  0  0  0  0
 75 77  1  0  0  0  0
 75 76  2  0  0  0  0
 78 79  1  0  0  0  0
 79 80  1  0  0  0  0
 80 82  2  0  0  0  0
 80 81  1  0  0  0  0
 78 83  1  6  0  0  0
 84 85  1  6  0  0  0
 84 86  1  1  0  0  0
 86 87  1  0  0  0  0
 87 89  1  0  0  0  0
 87 88  2  0  0  0  0
 63 90  1  0  0  0  0
 90 91  1  0  0  0  0
 90 92  2  0  0  0  0
 38 91  1  6  0  0  0
 38 93  1  0  0  0  0
 90 94  1  0  0  0  0
 49 64  8  0  0  0  0
M  CHG  2  64   1  94  -1
M  STY  4   1 DAT   2 DAT   3 DAT   4 DAT
M  SAL   1  2  11  64
M  SDT   1 MRV_COORDINATE_BOND_TYPE                              
M  SDD   1     0.0000    0.0000    DR    ALL  0       0  
M  SED   1 40
M  SAL   2  2   3  64
M  SDT   2 MRV_COORDINATE_BOND_TYPE                              
M  SDD   2     0.0000    0.0000    DR    ALL  0       0  
M  SED   2 41
M  SAL   3  2  15  64
M  SDT   3 MRV_COORDINATE_BOND_TYPE                              
M  SDD   3     0.0000    0.0000    DR    ALL  0       0  
M  SED   3 42
M  SAL   4  2  49  64
M  SDT   4 MRV_COORDINATE_BOND_TYPE                              
M  SDD   4     0.0000    0.0000    DR    ALL  0       0  
M  SED   4 105
M  END
>  <DRUGBANK_ID>
DB00200

>  <DRUG_GROUPS>
approved

>  <GENERIC_NAME>
Hydroxocobalamin

>  <SYNONYMS>
Hydroxomin; Vitamin B-12b

>  <BRANDS>
Acti-B12; Alpharedisol; Cyanokit; Hydro Cobex; Hydroxy Cobal

>  <CHEMICAL_FORMULA>
C62H89CoN13O15P

>  <MOLECULAR_WEIGHT>
1346.3551

>  <EXACT_MASS>
1345.567070949

>  <INCHI_IDENTIFIER>
InChI=1S/C62H90N13O14P.Co.H2O/c1-29-20-39-40(21-30(29)2)75(28-70-39)57-52(84)53(41(27-76)87-57)89-90(85,86)88-31(3)26-69-49(83)18-19-59(8)37(22-46(66)80)56-62(11)61(10,25-48(68)82)36(14-17-45(65)79)51(74-62)33(5)55-60(9,24-47(67)81)34(12-15-43(63)77)38(71-55)23-42-58(6,7)35(13-16-44(64)78)50(72-42)32(4)54(59)73-56;;/h20-21,23,28,31,34-37,41,52-53,56-57,76,84H,12-19,22,24-27H2,1-11H3,(H15,63,64,65,66,67,68,69,71,72,73,74,77,78,79,80,81,82,83,85,86);;1H2/q;+3;/p-3/t31-,34-,35-,36-,37+,41-,52-,53-,56-,57+,59-,60+,61+,62+;;/m1../s1

>  <INCHI_KEY>
InChIKey=YOZNUFWCRFCGIH-WZHZPDAFSA-K

>  <SMILES>
[H]O[Co+]N1\C2=C(C)/C3=N/C(=C\C4=N\C(=C(C)/C5=N[C@@](C)([C@@]1([H])[C@H](CC(=O)N)[C@@]2(C)CCC(=O)NC[C@@H](C)OP(=O)([O-])O[C@H]1[C@@H](O)[C@H](O[C@@H]1CO)N1C=NC2=CC(C)=C(C)C=C12)[C@@](C)(CC(N)=O)[C@@H]5CCC(=O)N)\[C@@](C)(CC(=O)N)[C@@H]4CCC(=O)N)/C(C)(C)[C@@H]3CCC(=O)N

>  <JCHEM_ACIDIC_PKA>
1.84

>  <JCHEM_BASIC_PKA>
8.78

>  <JCHEM_PHYSIOLOGICAL_CHARGE>
3

>  <ALOGPS_LOGP>
2.53

>  <ALOGPS_LOGS>
-5

>  <ALOGPS_SOLUBILITY>
1.46e-02 g/l

$$$$
201
  Mrv0541 02231214312D          

 14 15  0  0  0  0            999 V2000
    3.0791    1.6500    0.0000 O   0  0  0  0  0  0  0  0  0  0  0  0
    1.6500   -0.8250    0.0000 O   0  0  0  0  0  0  0  0  0  0  0  0
    3.0791   -0.8250    0.0000 N   0  0  0  0  0  0  0  0  0  0  0  0
    4.5741    0.6639    0.0000 N   0  0  0  0  0  0  0  0  0  0  0  0
    2.3645    0.4125    0.0000 N   0  0  0  0  0  0  0  0  0  0  0  0
    4.5741   -0.6639    0.0000 N   0  0  0  0  0  0  0  0  0  0  0  0
    3.7935    0.4125    0.0000 C   0  0  0  0  0  0  0  0  0  0  0  0
    3.7935   -0.4125    0.0000 C   0  0  0  0  0  0  0  0  0  0  0  0
    3.0791    0.8250    0.0000 C   0  0  0  0  0  0  0  0  0  0  0  0
    2.3645   -0.4125    0.0000 C   0  0  0  0  0  0  0  0  0  0  0  0
    5.0556    0.0000    0.0000 C   0  0  0  0  0  0  0  0  0  0  0  0
    3.0791   -1.6500    0.0000 C   0  0  0  0  0  0  0  0  0  0  0  0
    4.8305    1.4482    0.0000 C   0  0  0  0  0  0  0  0  0  0  0  0
    1.6500    0.8250    0.0000 C   0  0  0  0  0  0  0  0  0  0  0  0
  1  9  2  0  0  0  0
  2 10  2  0  0  0  0
  3  8  1  0  0  0  0
  3 10  1  0  0  0  0
  3 12  1  0  0  0  0
  4  7  1  0  0  0  0
  4 11  1  0  0  0  0
  4 13  1  0  0  0  0
  5  9  1  0  0  0  0
  5 10  1  0  0  0  0
  5 14  1  0  0  0  0
  6  8  1  0  0  0  0
  6 11  2  0  0  0  0
  7  8  2  0  0  0  0
  7  9  1  0  0  0  0
M  END
>  <DRUGBANK_ID>
DB00201

>  <DRUG_GROUPS>
approved

>  <GENERIC_NAME>
Caffeine

>  <SYNONYMS>
Cafeina; Caffein; CFF; Methyltheobromide; Methyltheobromine; Theobromine ME; Theophylline ME

>  <BRANDS>
Alert-Pep; Cafamil; Cafcit; Cafecon; Caffedrine; Caffine; Cafipel; Coffein; Coffeine; Dasin; Dexitac; DHC Plus; Diurex; Durvitan; Eldiatric C; Enerjets; Ercatab; Fioricet; Guaranine; Hycomine; Keep Alert; Kofein; Koffein; Mateina; Miudol; Nix Nap; No-Doz; Nodaca; Norgesic Forte; Organex; Pep-Back; Phensal; Quick Pep; Refresh'n; Stim; Thein; Theine; Vivarin; Wake-Up; Wigraine

>  <CHEMICAL_FORMULA>
C8H10N4O2

>  <MOLECULAR_WEIGHT>
194.1906

>  <EXACT_MASS>
194.080375584

>  <IUPAC_NAME>
1,3,7-trimethyl-2,3,6,7-tetrahydro-1H-purine-2,6-dione

>  <INCHI_IDENTIFIER>
InChI=1S/C8H10N4O2/c1-10-4-9-6-5(10)7(13)12(3)8(14)11(6)2/h4H,1-3H3

>  <INCHI_KEY>
InChIKey=RYYVLZVUVIJVGH-UHFFFAOYSA-N

>  <SMILES>
CN1C=NC2=C1C(=O)N(C)C(=O)N2C

>  <JCHEM_ACCEPTOR_COUNT>
3

>  <JCHEM_DONOR_COUNT>
0

>  <JCHEM_BASIC_PKA>
-0.92

>  <JCHEM_PHYSIOLOGICAL_CHARGE>
0

>  <ALOGPS_LOGP>
-0.24

>  <JCHEM_LOGP>
-0.55

>  <ALOGPS_LOGS>
-1.2

>  <JCHEM_POLARIZABILITY>
18.95

>  <JCHEM_POLAR_SURFACE_AREA>
58.44

>  <JCHEM_REFRACTIVITY>
49.83

>  <JCHEM_ROTATABLE_BOND_COUNT>
0

>  <ALOGPS_SOLUBILITY>
1.10e+01 g/l

$$$$
202
  Mrv0541 02231214312D          

 20 19  0  0  0  0            999 V2000
    4.5077    0.2063    0.0000 O   0  0  0  0  0  0  0  0  0  0  0  0
    8.0799   -0.2063    0.0000 O   0  0  0  0  0  0  0  0  0  0  0  0
    5.2221   -1.0312    0.0000 O   0  0  0  0  0  0  0  0  0  0  0  0
    7.3655    1.0312    0.0000 O   0  0  0  0  0  0  0  0  0  0  0  0
    2.3644   -0.2063    0.0000 N   0  3  0  0  0  0  0  0  0  0  0  0
   10.2233    0.2063    0.0000 N   0  3  0  0  0  0  0  0  0  0  0  0
    3.0789    0.2063    0.0000 C   0  0  0  0  0  0  0  0  0  0  0  0
    9.5088   -0.2063    0.0000 C   0  0  0  0  0  0  0  0  0  0  0  0
    2.7768   -0.9206    0.0000 C   0  0  0  0  0  0  0  0  0  0  0  0
    1.9519    0.5082    0.0000 C   0  0  0  0  0  0  0  0  0  0  0  0
    1.6499   -0.6188    0.0000 C   0  0  0  0  0  0  0  0  0  0  0  0
   10.6358   -0.5082    0.0000 C   0  0  0  0  0  0  0  0  0  0  0  0
    9.8108    0.9206    0.0000 C   0  0  0  0  0  0  0  0  0  0  0  0
   10.9376    0.6188    0.0000 C   0  0  0  0  0  0  0  0  0  0  0  0
    3.7933   -0.2063    0.0000 C   0  0  0  0  0  0  0  0  0  0  0  0
    8.7944    0.2063    0.0000 C   0  0  0  0  0  0  0  0  0  0  0  0
    5.9366    0.2063    0.0000 C   0  0  0  0  0  0  0  0  0  0  0  0
    6.6511   -0.2063    0.0000 C   0  0  0  0  0  0  0  0  0  0  0  0
    5.2221   -0.2063    0.0000 C   0  0  0  0  0  0  0  0  0  0  0  0
    7.3655    0.2063    0.0000 C   0  0  0  0  0  0  0  0  0  0  0  0
  1 15  1  0  0  0  0
  1 19  1  0  0  0  0
  2 16  1  0  0  0  0
  2 20  1  0  0  0  0
  3 19  2  0  0  0  0
  4 20  2  0  0  0  0
  5  7  1  0  0  0  0
  5  9  1  0  0  0  0
  5 10  1  0  0  0  0
  5 11  1  0  0  0  0
  6  8  1  0  0  0  0
  6 12  1  0  0  0  0
  6 13  1  0  0  0  0
  6 14  1  0  0  0  0
  7 15  1  0  0  0  0
  8 16  1  0  0  0  0
 17 18  1  0  0  0  0
 17 19  1  0  0  0  0
 18 20  1  0  0  0  0
M  CHG  2   5   1   6   1
M  END
>  <DRUGBANK_ID>
DB00202

>  <DRUG_GROUPS>
approved

>  <GENERIC_NAME>
Succinylcholine

>  <SYNONYMS>
Scoline; Succinylcholine Chloride; Suxamethonium chloride

>  <BRANDS>
Anectine; Quelicin; Sucostrin

>  <CHEMICAL_FORMULA>
C14H30N2O4

>  <MOLECULAR_WEIGHT>
290.399

>  <EXACT_MASS>
290.220557458

>  <IUPAC_NAME>
trimethyl[2-({4-oxo-4-[2-(trimethylazaniumyl)ethoxy]butanoyl}oxy)ethyl]azanium

>  <INCHI_IDENTIFIER>
InChI=1S/C14H30N2O4/c1-15(2,3)9-11-19-13(17)7-8-14(18)20-12-10-16(4,5)6/h7-12H2,1-6H3/q+2

>  <INCHI_KEY>
InChIKey=AXOIZCJOOAYSMI-UHFFFAOYSA-N

>  <SMILES>
C[N+](C)(C)CCOC(=O)CCC(=O)OCC[N+](C)(C)C

>  <JCHEM_ACCEPTOR_COUNT>
2

>  <JCHEM_DONOR_COUNT>
0

>  <JCHEM_BASIC_PKA>
-6.8

>  <JCHEM_PHYSIOLOGICAL_CHARGE>
2

>  <ALOGPS_LOGP>
-2.5

>  <JCHEM_LOGP>
-8.4

>  <ALOGPS_LOGS>
-5.7

>  <JCHEM_POLARIZABILITY>
33.15

>  <JCHEM_POLAR_SURFACE_AREA>
52.6

>  <JCHEM_REFRACTIVITY>
100.94

>  <JCHEM_ROTATABLE_BOND_COUNT>
11

>  <ALOGPS_SOLUBILITY>
7.57e-04 g/l

$$$$
5212
  Mrv0541 02231214312D          

 33 36  0  0  0  0            999 V2000
    4.5080   -0.4125    0.0000 S   0  0  0  0  0  0  0  0  0  0  0  0
    4.0955    0.3020    0.0000 O   0  0  0  0  0  0  0  0  0  0  0  0
    4.9205   -1.1270    0.0000 O   0  0  0  0  0  0  0  0  0  0  0  0
    7.3659    1.2375    0.0000 O   0  0  0  0  0  0  0  0  0  0  0  0
    8.0804   -2.4751    0.0000 O   0  0  0  0  0  0  0  0  0  0  0  0
    3.7935   -0.8250    0.0000 N   0  0  0  0  0  0  0  0  0  0  0  0
    2.3645   -1.6500    0.0000 N   0  0  0  0  0  0  0  0  0  0  0  0
    8.0804    0.0000    0.0000 N   0  0  0  0  0  0  0  0  0  0  0  0
    9.5756   -1.4889    0.0000 N   0  0  0  0  0  0  0  0  0  0  0  0
   10.0571   -0.8250    0.0000 N   0  0  0  0  0  0  0  0  0  0  0  0
    7.3659   -1.2375    0.0000 N   0  0  0  0  0  0  0  0  0  0  0  0
    3.0790   -0.4125    0.0000 C   0  0  0  0  0  0  0  0  0  0  0  0
    3.7935   -1.6500    0.0000 C   0  0  0  0  0  0  0  0  0  0  0  0
    2.3645   -0.8250    0.0000 C   0  0  0  0  0  0  0  0  0  0  0  0
    3.0790   -2.0625    0.0000 C   0  0  0  0  0  0  0  0  0  0  0  0
    5.2224    0.0000    0.0000 C   0  0  0  0  0  0  0  0  0  0  0  0
    1.6500   -2.0625    0.0000 C   0  0  0  0  0  0  0  0  0  0  0  0
    5.9370   -0.4125    0.0000 C   0  0  0  0  0  0  0  0  0  0  0  0
    6.6515    0.0000    0.0000 C   0  0  0  0  0  0  0  0  0  0  0  0
    5.2224    0.8250    0.0000 C   0  0  0  0  0  0  0  0  0  0  0  0
    7.3659   -0.4125    0.0000 C   0  0  0  0  0  0  0  0  0  0  0  0
    8.7949   -0.4125    0.0000 C   0  0  0  0  0  0  0  0  0  0  0  0
    6.6515    0.8250    0.0000 C   0  0  0  0  0  0  0  0  0  0  0  0
    5.9370    1.2375    0.0000 C   0  0  0  0  0  0  0  0  0  0  0  0
    9.5756   -0.1611    0.0000 C   0  0  0  0  0  0  0  0  0  0  0  0
    8.7949   -1.2375    0.0000 C   0  0  0  0  0  0  0  0  0  0  0  0
    9.8318    0.6231    0.0000 C   0  0  0  0  0  0  0  0  0  0  0  0
    8.0804   -1.6500    0.0000 C   0  0  0  0  0  0  0  0  0  0  0  0
   10.6391    0.7933    0.0000 C   0  0  0  0  0  0  0  0  0  0  0  0
    9.8318   -2.2732    0.0000 C   0  0  0  0  0  0  0  0  0  0  0  0
   10.8954    1.5774    0.0000 C   0  0  0  0  0  0  0  0  0  0  0  0
    7.3659    2.0625    0.0000 C   0  0  0  0  0  0  0  0  0  0  0  0
    8.0804    2.4751    0.0000 C   0  0  0  0  0  0  0  0  0  0  0  0
  1  2  2  0  0  0  0
  1  3  2  0  0  0  0
  1  6  1  0  0  0  0
  1 16  1  0  0  0  0
  4 23  1  0  0  0  0
  4 32  1  0  0  0  0
  5 28  2  0  0  0  0
  6 12  1  0  0  0  0
  6 13  1  0  0  0  0
  7 14  1  0  0  0  0
  7 15  1  0  0  0  0
  7 17  1  0  0  0  0
  8 21  1  0  0  0  0
  8 22  1  0  0  0  0
  9 10  1  0  0  0  0
  9 26  1  0  0  0  0
  9 30  1  0  0  0  0
 10 25  2  0  0  0  0
 11 21  2  0  0  0  0
 11 28  1  0  0  0  0
 12 14  1  0  0  0  0
 13 15  1  0  0  0  0
 16 18  2  0  0  0  0
 16 20  1  0  0  0  0
 18 19  1  0  0  0  0
 19 21  1  0  0  0  0
 19 23  2  0  0  0  0
 20 24  2  0  0  0  0
 22 25  1  0  0  0  0
 22 26  2  0  0  0  0
 23 24  1  0  0  0  0
 25 27  1  0  0  0  0
 26 28  1  0  0  0  0
 27 29  1  0  0  0  0
 29 31  1  0  0  0  0
 32 33  1  0  0  0  0
M  END
>  <DRUGBANK_ID>
DB00203

>  <DRUG_GROUPS>
approved; investigational

>  <GENERIC_NAME>
Sildenafil

>  <SYNONYMS>
Sildenafil Citrate

>  <BRANDS>
Revatio; Viagra

>  <CHEMICAL_FORMULA>
C22H30N6O4S

>  <MOLECULAR_WEIGHT>
474.576

>  <EXACT_MASS>
474.204924168

>  <IUPAC_NAME>
5-[2-ethoxy-5-(4-methylpiperazine-1-sulfonyl)phenyl]-1-methyl-3-propyl-1H,4H,7H-pyrazolo[4,3-d]pyrimidin-7-one

>  <INCHI_IDENTIFIER>
InChI=1S/C22H30N6O4S/c1-5-7-17-19-20(27(4)25-17)22(29)24-21(23-19)16-14-15(8-9-18(16)32-6-2)33(30,31)28-12-10-26(3)11-13-28/h8-9,14H,5-7,10-13H2,1-4H3,(H,23,24,29)

>  <INCHI_KEY>
InChIKey=BNRNXUUZRGQAQC-UHFFFAOYSA-N

>  <SMILES>
CCCC1=NN(C)C2=C1NC(=NC2=O)C1=C(OCC)C=CC(=C1)S(=O)(=O)N1CCN(C)CC1

>  <JCHEM_ACCEPTOR_COUNT>
8

>  <JCHEM_DONOR_COUNT>
1

>  <JCHEM_ACIDIC_PKA>
7.27

>  <JCHEM_BASIC_PKA>
5.97

>  <JCHEM_PHYSIOLOGICAL_CHARGE>
0

>  <ALOGPS_LOGP>
2.35

>  <JCHEM_LOGP>
1.65

>  <ALOGPS_LOGS>
-3

>  <JCHEM_POLARIZABILITY>
51.18

>  <JCHEM_POLAR_SURFACE_AREA>
109.13

>  <JCHEM_REFRACTIVITY>
139.44

>  <JCHEM_ROTATABLE_BOND_COUNT>
6

>  <ALOGPS_SOLUBILITY>
4.33e-01 g/l

$$$$
204
  Mrv0541 02231214312D          

 29 30  0  0  1  0            999 V2000
    5.9370    5.1564    0.0000 S   0  0  0  0  0  0  0  0  0  0  0  0
    2.3645   -5.1564    0.0000 S   0  0  0  0  0  0  0  0  0  0  0  0
    3.0791   -1.4438    0.0000 O   0  0  0  0  0  0  0  0  0  0  0  0
    6.3495    4.4419    0.0000 O   0  0  0  0  0  0  0  0  0  0  0  0
    5.5245    5.8708    0.0000 O   0  0  0  0  0  0  0  0  0  0  0  0
    1.9520   -4.4419    0.0000 O   0  0  0  0  0  0  0  0  0  0  0  0
    2.7770   -5.8708    0.0000 O   0  0  0  0  0  0  0  0  0  0  0  0
    4.5080    0.2063    0.0000 N   0  0  0  0  0  0  0  0  0  0  0  0
    5.2224    4.7439    0.0000 N   0  0  0  0  0  0  0  0  0  0  0  0
    3.0791   -4.7439    0.0000 N   0  0  0  0  0  0  0  0  0  0  0  0
    4.5080    1.0313    0.0000 C   0  0  0  0  0  0  0  0  0  0  0  0
    5.2224    1.4438    0.0000 C   0  0  0  0  0  0  0  0  0  0  0  0
    3.7935   -0.2063    0.0000 C   0  0  0  0  0  0  0  0  0  0  0  0
    5.2224    2.2688    0.0000 C   0  0  0  0  0  0  0  0  0  0  0  0
    3.7935   -1.0313    0.0000 C   0  0  0  0  0  0  0  0  0  0  0  0
    5.2224   -0.2063    0.0000 C   0  0  0  0  0  0  0  0  0  0  0  0
    4.5080    2.6813    0.0000 C   0  0  0  0  0  0  0  0  0  0  0  0
    5.9370    2.6813    0.0000 C   0  0  0  0  0  0  0  0  0  0  0  0
    5.2224    3.9188    0.0000 C   0  0  0  0  0  0  0  0  0  0  0  0
    4.5080    3.5063    0.0000 C   0  0  0  0  0  0  0  0  0  0  0  0
    5.9370    3.5063    0.0000 C   0  0  0  0  0  0  0  0  0  0  0  0
    3.0791   -2.2688    0.0000 C   0  0  0  0  0  0  0  0  0  0  0  0
    3.0791   -3.9188    0.0000 C   0  0  0  0  0  0  0  0  0  0  0  0
    2.3645   -2.6813    0.0000 C   0  0  0  0  0  0  0  0  0  0  0  0
    3.7935   -2.6813    0.0000 C   0  0  0  0  0  0  0  0  0  0  0  0
    2.3645   -3.5063    0.0000 C   0  0  0  0  0  0  0  0  0  0  0  0
    3.7935   -3.5063    0.0000 C   0  0  0  0  0  0  0  0  0  0  0  0
    6.6515    5.5689    0.0000 C   0  0  0  0  0  0  0  0  0  0  0  0
    1.6500   -5.5689    0.0000 C   0  0  0  0  0  0  0  0  0  0  0  0
  1  4  2  0  0  0  0
  1  5  2  0  0  0  0
  1  9  1  0  0  0  0
  1 28  1  0  0  0  0
  2  6  2  0  0  0  0
  2  7  2  0  0  0  0
  2 10  1  0  0  0  0
  2 29  1  0  0  0  0
  3 15  1  0  0  0  0
  3 22  1  0  0  0  0
  8 11  1  0  0  0  0
  8 13  1  0  0  0  0
  8 16  1  0  0  0  0
  9 19  1  0  0  0  0
 10 23  1  0  0  0  0
 11 12  1  0  0  0  0
 12 14  1  0  0  0  0
 13 15  1  0  0  0  0
 14 17  2  0  0  0  0
 14 18  1  0  0  0  0
 17 20  1  0  0  0  0
 18 21  2  0  0  0  0
 19 20  2  0  0  0  0
 19 21  1  0  0  0  0
 22 24  2  0  0  0  0
 22 25  1  0  0  0  0
 23 26  2  0  0  0  0
 23 27  1  0  0  0  0
 24 26  1  0  0  0  0
 25 27  2  0  0  0  0
M  END
>  <DRUGBANK_ID>
DB00204

>  <DRUG_GROUPS>
approved

>  <GENERIC_NAME>
Dofetilide

>  <SYNONYMS>
Dofetilida [INN-Spanish]; Dofetilidum [INN-Latin]

>  <BRANDS>
Dofetilida; Tikosyn

>  <CHEMICAL_FORMULA>
C19H27N3O5S2

>  <MOLECULAR_WEIGHT>
441.565

>  <EXACT_MASS>
441.139212369

>  <IUPAC_NAME>
N-[4-(2-{[2-(4-methanesulfonamidophenoxy)ethyl](methyl)amino}ethyl)phenyl]methanesulfonamide

>  <INCHI_IDENTIFIER>
InChI=1S/C19H27N3O5S2/c1-22(13-12-16-4-6-17(7-5-16)20-28(2,23)24)14-15-27-19-10-8-18(9-11-19)21-29(3,25)26/h4-11,20-21H,12-15H2,1-3H3

>  <INCHI_KEY>
InChIKey=IXTMWRCNAAVVAI-UHFFFAOYSA-N

>  <SMILES>
CN(CCOC1=CC=C(NS(C)(=O)=O)C=C1)CCC1=CC=C(NS(C)(=O)=O)C=C1

>  <JCHEM_ACCEPTOR_COUNT>
6

>  <JCHEM_DONOR_COUNT>
2

>  <JCHEM_ACIDIC_PKA>
10.15

>  <JCHEM_BASIC_PKA>
8.99

>  <JCHEM_PHYSIOLOGICAL_CHARGE>
1

>  <ALOGPS_LOGP>
2.17

>  <JCHEM_LOGP>
0.24

>  <ALOGPS_LOGS>
-4.3

>  <JCHEM_POLARIZABILITY>
46.03

>  <JCHEM_POLAR_SURFACE_AREA>
104.81

>  <JCHEM_REFRACTIVITY>
113.27

>  <JCHEM_ROTATABLE_BOND_COUNT>
9

>  <ALOGPS_SOLUBILITY>
1.98e-02 g/l

$$$$
205
  Mrv0541 02231214312D          

 17 18  0  0  0  0            999 V2000
    3.5220    3.0154    0.0000 Cl  0  0  0  0  0  0  0  0  0  0  0  0
    4.2365   -1.5222    0.0000 N   0  0  0  0  0  0  0  0  0  0  0  0
    2.8075   -1.5222    0.0000 N   0  0  0  0  0  0  0  0  0  0  0  0
    2.0930   -0.2846    0.0000 N   0  0  0  0  0  0  0  0  0  0  0  0
    3.5220   -2.7597    0.0000 N   0  0  0  0  0  0  0  0  0  0  0  0
    3.5220   -0.2846    0.0000 C   0  0  0  0  0  0  0  0  0  0  0  0
    4.2365   -0.6971    0.0000 C   0  0  0  0  0  0  0  0  0  0  0  0
    4.9509   -0.2846    0.0000 C   0  0  0  0  0  0  0  0  0  0  0  0
    3.5220    0.5404    0.0000 C   0  0  0  0  0  0  0  0  0  0  0  0
    2.8075   -0.6971    0.0000 C   0  0  0  0  0  0  0  0  0  0  0  0
    2.8075    0.9529    0.0000 C   0  0  0  0  0  0  0  0  0  0  0  0
    4.2365    0.9529    0.0000 C   0  0  0  0  0  0  0  0  0  0  0  0
    5.6655   -0.6971    0.0000 C   0  0  0  0  0  0  0  0  0  0  0  0
    3.5220   -1.9347    0.0000 C   0  0  0  0  0  0  0  0  0  0  0  0
    2.8075    1.7779    0.0000 C   0  0  0  0  0  0  0  0  0  0  0  0
    4.2365    1.7779    0.0000 C   0  0  0  0  0  0  0  0  0  0  0  0
    3.5220    2.1904    0.0000 C   0  0  0  0  0  0  0  0  0  0  0  0
  1 17  1  0  0  0  0
  2  7  1  0  0  0  0
  2 14  2  0  0  0  0
  3 10  2  0  0  0  0
  3 14  1  0  0  0  0
  4 10  1  0  0  0  0
  5 14  1  0  0  0  0
  6  7  2  0  0  0  0
  6  9  1  0  0  0  0
  6 10  1  0  0  0  0
  7  8  1  0  0  0  0
  8 13  1  0  0  0  0
  9 11  2  0  0  0  0
  9 12  1  0  0  0  0
 11 15  1  0  0  0  0
 12 16  2  0  0  0  0
 15 17  2  0  0  0  0
 16 17  1  0  0  0  0
M  END
>  <DRUGBANK_ID>
DB00205

>  <DRUG_GROUPS>
approved

>  <GENERIC_NAME>
Pyrimethamine

>  <SYNONYMS>
CD; Chloridin; Chloridine; Chloridyn; Diaminopyritamin; Ethylpyrimidine; Pirimetamin; Pirimetamina; Primethamine; Pyremethamine; Pyrimethamin; Pyrimethamine Hcl

>  <BRANDS>
Darachlor; Daraclor; Darapram; Daraprim; Daraprime; Disulone; Erbaprelina; Fansidar; Khloridin; Malacid; Malocid; Malocide; Maloprim; Pirimecidan; Tindurin; Tinduring

>  <CHEMICAL_FORMULA>
C12H13ClN4

>  <MOLECULAR_WEIGHT>
248.711

>  <EXACT_MASS>
248.082874143

>  <IUPAC_NAME>
5-(4-chlorophenyl)-6-ethylpyrimidine-2,4-diamine

>  <INCHI_IDENTIFIER>
InChI=1S/C12H13ClN4/c1-2-9-10(11(14)17-12(15)16-9)7-3-5-8(13)6-4-7/h3-6H,2H2,1H3,(H4,14,15,16,17)

>  <INCHI_KEY>
InChIKey=WKSAUQYGYAYLPV-UHFFFAOYSA-N

>  <SMILES>
CCC1=C(C(N)=NC(N)=N1)C1=CC=C(Cl)C=C1

>  <JCHEM_ACCEPTOR_COUNT>
4

>  <JCHEM_DONOR_COUNT>
2

>  <JCHEM_ACIDIC_PKA>
17.22

>  <JCHEM_BASIC_PKA>
7.77

>  <JCHEM_PHYSIOLOGICAL_CHARGE>
1

>  <ALOGPS_LOGP>
2.62

>  <JCHEM_LOGP>
2.75

>  <ALOGPS_LOGS>
-3.1

>  <JCHEM_POLARIZABILITY>
25.79

>  <JCHEM_POLAR_SURFACE_AREA>
77.82

>  <JCHEM_REFRACTIVITY>
71.54

>  <JCHEM_ROTATABLE_BOND_COUNT>
2

>  <ALOGPS_SOLUBILITY>
1.79e-01 g/l

$$$$
206
  Mrv0541 02231214312D          

 47 52  0  0  1  0            999 V2000
    9.0369   -1.7075    0.0000 O   0  0  0  0  0  0  0  0  0  0  0  0
   10.1915   -0.4251    0.0000 O   0  0  0  0  0  0  0  0  0  0  0  0
    7.5976   -2.1233    0.0000 O   0  0  0  0  0  0  0  0  0  0  0  0
    6.5468   -1.1549    0.0000 O   0  0  0  0  0  0  0  0  0  0  0  0
   10.4832    0.9737    0.0000 O   0  0  0  0  0  0  0  0  0  0  0  0
    2.2049    1.5700    0.0000 O   0  0  0  0  0  0  0  0  0  0  0  0
   12.8723   -1.7140    0.0000 O   0  0  0  0  0  0  0  0  0  0  0  0
   13.4557    1.0837    0.0000 O   0  0  0  0  0  0  0  0  0  0  0  0
   13.9716   -0.4836    0.0000 O   0  0  0  0  0  0  0  0  0  0  0  0
    7.1074    1.7459    0.0000 N   0  0  0  0  0  0  0  0  0  0  0  0
    5.0836    0.8240    0.0000 N   0  0  0  0  0  0  0  0  0  0  0  0
    7.6474    0.1264    0.0000 C   0  0  2  0  0  0  0  0  0  0  0  0
    8.2224    0.7650    0.0000 C   0  0  1  0  0  0  0  0  0  0  0  0
    6.8083    0.3115    0.0000 C   0  0  0  0  0  0  0  0  0  0  0  0
    7.9109   -0.7290    0.0000 C   0  0  1  0  0  0  0  0  0  0  0  0
    6.5553    1.1328    0.0000 C   0  0  2  0  0  0  0  0  0  0  0  0
    7.9505    1.5802    0.0000 C   0  0  0  0  0  0  0  0  0  0  0  0
    9.1007    0.5924    0.0000 C   0  0  0  0  0  0  0  0  0  0  0  0
    8.7849   -0.9219    0.0000 C   0  0  2  0  0  0  0  0  0  0  0  0
    9.3839   -0.2567    0.0000 C   0  0  2  0  0  0  0  0  0  0  0  0
    5.7484    1.3043    0.0000 C   0  0  0  0  0  0  0  0  0  0  0  0
    6.8524    2.5305    0.0000 C   0  0  0  0  0  0  0  0  0  0  0  0
    5.4935    2.0889    0.0000 C   0  0  0  0  0  0  0  0  0  0  0  0
    6.0455    2.7020    0.0000 C   0  0  0  0  0  0  0  0  0  0  0  0
    7.3518   -1.3357    0.0000 C   0  0  0  0  0  0  0  0  0  0  0  0
    4.6734    2.0868    0.0000 C   0  0  0  0  0  0  0  0  0  0  0  0
    4.4206    1.3066    0.0000 C   0  0  0  0  0  0  0  0  0  0  0  0
    9.8431   -1.8821    0.0000 C   0  0  0  0  0  0  0  0  0  0  0  0
    4.1111    2.7299    0.0000 C   0  0  0  0  0  0  0  0  0  0  0  0
   10.7411    0.1901    0.0000 C   0  0  0  0  0  0  0  0  0  0  0  0
    3.5880    1.1155    0.0000 C   0  0  0  0  0  0  0  0  0  0  0  0
    3.2743    2.5580    0.0000 C   0  0  0  0  0  0  0  0  0  0  0  0
    3.0110    1.7453    0.0000 C   0  0  0  0  0  0  0  0  0  0  0  0
    7.0385   -2.7299    0.0000 C   0  0  0  0  0  0  0  0  0  0  0  0
   11.5488    0.0217    0.0000 C   0  0  0  0  0  0  0  0  0  0  0  0
   12.0984    0.6369    0.0000 C   0  0  0  0  0  0  0  0  0  0  0  0
   11.8067   -0.7620    0.0000 C   0  0  0  0  0  0  0  0  0  0  0  0
   12.6143   -0.9303    0.0000 C   0  0  0  0  0  0  0  0  0  0  0  0
   12.9060    0.4684    0.0000 C   0  0  0  0  0  0  0  0  0  0  0  0
    1.6500    2.1805    0.0000 C   0  0  0  0  0  0  0  0  0  0  0  0
   13.1639   -0.3151    0.0000 C   0  0  0  0  0  0  0  0  0  0  0  0
   12.3226   -2.3292    0.0000 C   0  0  0  0  0  0  0  0  0  0  0  0
   13.1977    1.8673    0.0000 C   0  0  0  0  0  0  0  0  0  0  0  0
   14.5212    0.1317    0.0000 C   0  0  0  0  0  0  0  0  0  0  0  0
    7.2001   -0.3590    0.0000 H   0  0  0  0  0  0  0  0  0  0  0  0
    8.6583    1.2606    0.0000 H   0  0  0  0  0  0  0  0  0  0  0  0
    6.1100    0.6457    0.0000 H   0  0  0  0  0  0  0  0  0  0  0  0
 19  1  1  6  0  0  0
  1 28  1  0  0  0  0
 20  2  1  1  0  0  0
  2 30  1  0  0  0  0
  3 25  1  0  0  0  0
  3 34  1  0  0  0  0
  4 25  2  0  0  0  0
  5 30  2  0  0  0  0
  6 33  1  0  0  0  0
  6 40  1  0  0  0  0
  7 38  1  0  0  0  0
  7 42  1  0  0  0  0
  8 39  1  0  0  0  0
  8 43  1  0  0  0  0
  9 41  1  0  0  0  0
  9 44  1  0  0  0  0
 10 16  1  0  0  0  0
 10 17  1  0  0  0  0
 10 22  1  0  0  0  0
 11 21  1  0  0  0  0
 11 27  1  0  0  0  0
 12 13  1  0  0  0  0
 12 14  1  0  0  0  0
 12 15  1  0  0  0  0
 12 45  1  6  0  0  0
 13 17  1  0  0  0  0
 13 18  1  0  0  0  0
 13 46  1  6  0  0  0
 14 16  1  0  0  0  0
 15 19  1  0  0  0  0
 15 25  1  1  0  0  0
 16 21  1  0  0  0  0
 16 47  1  1  0  0  0
 18 20  1  0  0  0  0
 19 20  1  0  0  0  0
 21 23  2  0  0  0  0
 22 24  1  0  0  0  0
 23 24  1  0  0  0  0
 23 26  1  0  0  0  0
 26 27  2  0  0  0  0
 26 29  1  0  0  0  0
 27 31  1  0  0  0  0
 29 32  2  0  0  0  0
 30 35  1  0  0  0  0
 31 33  2  0  0  0  0
 32 33  1  0  0  0  0
 35 36  2  0  0  0  0
 35 37  1  0  0  0  0
 36 39  1  0  0  0  0
 37 38  2  0  0  0  0
 38 41  1  0  0  0  0
 39 41  2  0  0  0  0
M  END
>  <DRUGBANK_ID>
DB00206

>  <DRUG_GROUPS>
approved

>  <GENERIC_NAME>
Reserpine

>  <BRANDS>
Demi-Regroton; Diupres-250; Diupres-500; Diutensen-R; Dralserp; Hiserpia; Hydromox R; Hydroserpine Plus (R-H-H); Metatensin #2; Metatensin #4; Novoreserpine; Rau-Sed; Regroton; Renese-R; Reserfia; Salutensin-Demi; Sandril; Serpalan; Serpanray; Serpasil; Serpasil-Apresoline; Serpasil-Esidrix #1; Serpasil-Esidrix #2; Serpate; Serpivite

>  <CHEMICAL_FORMULA>
C33H40N2O9

>  <MOLECULAR_WEIGHT>
608.6787

>  <EXACT_MASS>
608.273380888

>  <IUPAC_NAME>
methyl (1R,15S,17R,18R,19S,20S)-6,18-dimethoxy-17-[(3,4,5-trimethoxyphenyl)carbonyloxy]-3,13-diazapentacyclo[11.8.0.0^{2,10}.0^{4,9}.0^{15,20}]henicosa-2(10),4,6,8-tetraene-19-carboxylate

>  <INCHI_IDENTIFIER>
InChI=1S/C33H40N2O9/c1-38-19-7-8-20-21-9-10-35-16-18-13-27(44-32(36)17-11-25(39-2)30(41-4)26(12-17)40-3)31(42-5)28(33(37)43-6)22(18)15-24(35)29(21)34-23(20)14-19/h7-8,11-12,14,18,22,24,27-28,31,34H,9-10,13,15-16H2,1-6H3/t18-,22+,24-,27-,28+,31+/m1/s1

>  <INCHI_KEY>
InChIKey=QEVHRUUCFGRFIF-MDEJGZGSSA-N

>  <SMILES>
[H][C@]12C[C@@H](OC(=O)C3=CC(OC)=C(OC)C(OC)=C3)[C@H](OC)[C@@H](C(=O)OC)[C@@]1([H])C[C@@]1([H])N(CCC3=C1NC1=C3C=CC(OC)=C1)C2

>  <JCHEM_ACCEPTOR_COUNT>
8

>  <JCHEM_DONOR_COUNT>
1

>  <JCHEM_ACIDIC_PKA>
16.29

>  <JCHEM_BASIC_PKA>
7.56

>  <JCHEM_PHYSIOLOGICAL_CHARGE>
1

>  <ALOGPS_LOGP>
4.05

>  <JCHEM_LOGP>
3.53

>  <ALOGPS_LOGS>
-4.7

>  <JCHEM_POLARIZABILITY>
66.05

>  <JCHEM_POLAR_SURFACE_AREA>
117.78

>  <JCHEM_REFRACTIVITY>
161.42

>  <JCHEM_ROTATABLE_BOND_COUNT>
10

>  <ALOGPS_SOLUBILITY>
1.13e-02 g/l

$$$$

  Mrv0541 04191212112D          

 52 54  0  0  0  0            999 V2000
   -3.2657    2.7280    0.0000 N   0  0  0  0  0  0  0  0  0  0  0  0
   -1.7679    2.7107    0.0000 C   0  0  0  0  0  0  0  0  0  0  0  0
   -3.6782    2.0135    0.0000 C   0  0  1  0  0  0  0  0  0  0  0  0
   -1.3554    1.9962    0.0000 C   0  0  1  0  0  0  0  0  0  0  0  0
   -1.7679    1.2818    0.0000 C   0  0  0  0  0  0  0  0  0  0  0  0
   -1.1845    0.6984    0.0000 C   0  0  2  0  0  0  0  0  0  0  0  0
   -1.1845   -0.1266    0.0000 C   0  0  1  0  0  0  0  0  0  0  0  0
   -1.7679   -0.7100    0.0000 C   0  0  2  0  0  0  0  0  0  0  0  0
   -1.7679   -1.5350    0.0000 C   0  0  1  0  0  0  0  0  0  0  0  0
   -2.4823   -1.9475    0.0000 C   0  0  2  0  0  0  0  0  0  0  0  0
   -3.1968   -1.5350    0.0000 C   0  0  0  0  0  0  0  0  0  0  0  0
   -3.1968   -0.7100    0.0000 O   0  0  0  0  0  0  0  0  0  0  0  0
   -3.9113   -0.2975    0.0000 C   0  0  1  0  0  0  0  0  0  0  0  0
   -3.9113    0.5275    0.0000 C   0  0  2  0  0  0  0  0  0  0  0  0
   -3.3279    1.1109    0.0000 C   0  0  2  0  0  0  0  0  0  0  0  0
   -3.2657    3.5530    0.0000 C   0  0  0  0  0  0  0  0  0  0  0  0
   -4.4751    2.2270    0.0000 C   0  0  0  0  0  0  0  0  0  0  0  0
   -2.5310    0.8974    0.0000 O   0  0  0  0  0  0  0  0  0  0  0  0
   -4.6258    0.9400    0.0000 O   0  0  0  0  0  0  0  0  0  0  0  0
   -2.4823   -2.7725    0.0000 C   0  0  0  0  0  0  0  0  0  0  0  0
   -0.3876    0.9119    0.0000 O   0  0  0  0  0  0  0  0  0  0  0  0
   -0.5585    2.2097    0.0000 C   0  0  0  0  0  0  0  0  0  0  0  0
   -0.4700    0.2859    0.0000 C   0  0  0  0  0  0  0  0  0  0  0  0
   -4.6258    0.1150    0.0000 C   0  0  0  0  0  0  0  0  0  0  0  0
   -4.6258   -0.7100    0.0000 C   0  0  0  0  0  0  0  0  0  0  0  0
   -0.6394   -3.2068    0.0000 O   0  0  0  0  0  0  0  0  0  0  0  0
    0.5612   -0.6851    0.0000 O   0  0  0  0  0  0  0  0  0  0  0  0
   -3.9113   -1.9475    0.0000 O   0  0  0  0  0  0  0  0  0  0  0  0
   -5.4508   -0.7100    0.0000 C   0  0  0  0  0  0  0  0  0  0  0  0
   -0.6394   -4.0318    0.0000 C   0  0  1  0  0  0  0  0  0  0  0  0
    1.7987   -1.3996    0.0000 C   0  0  1  0  0  0  0  0  0  0  0  0
    0.9737   -1.3996    0.0000 C   0  0  1  0  0  0  0  0  0  0  0  0
    0.5612   -2.1141    0.0000 O   0  0  0  0  0  0  0  0  0  0  0  0
    0.9736   -2.8286    0.0000 C   0  0  1  0  0  0  0  0  0  0  0  0
    1.7986   -2.8286    0.0000 C   0  0  0  0  0  0  0  0  0  0  0  0
    2.2112   -2.1141    0.0000 C   0  0  2  0  0  0  0  0  0  0  0  0
    0.1856   -4.0318    0.0000 C   0  0  0  0  0  0  0  0  0  0  0  0
   -1.0519   -4.7463    0.0000 O   0  0  0  0  0  0  0  0  0  0  0  0
   -0.6395   -5.4608    0.0000 C   0  0  2  0  0  0  0  0  0  0  0  0
    0.1855   -5.4608    0.0000 C   0  0  1  0  0  0  0  0  0  0  0  0
    0.5981   -4.7463    0.0000 C   0  0  1  0  0  0  0  0  0  0  0  0
    2.3820   -0.8162    0.0000 O   0  0  0  0  0  0  0  0  0  0  0  0
   -1.2228   -6.0441    0.0000 C   0  0  0  0  0  0  0  0  0  0  0  0
    1.1814   -5.3296    0.0000 C   0  0  0  0  0  0  0  0  0  0  0  0
    0.5611   -3.5430    0.0000 C   0  0  0  0  0  0  0  0  0  0  0  0
    3.0362   -2.1141    0.0000 N   0  0  0  0  0  0  0  0  0  0  0  0
    1.1814   -4.1629    0.0000 O   0  0  0  0  0  0  0  0  0  0  0  0
    0.5980   -6.1752    0.0000 O   0  0  0  0  0  0  0  0  0  0  0  0
    2.0064   -4.1629    0.0000 C   0  0  0  0  0  0  0  0  0  0  0  0
    3.6195   -1.5307    0.0000 C   0  0  0  0  0  0  0  0  0  0  0  0
    3.4487   -2.8286    0.0000 C   0  0  0  0  0  0  0  0  0  0  0  0
   -2.4824   -0.2975    0.0000 C   0  0  0  0  0  0  0  0  0  0  0  0
  1  2  1  0  0  0  0
  1  3  1  0  0  0  0
  2  4  1  0  0  0  0
  4  5  1  0  0  0  0
  5  6  1  0  0  0  0
  6  7  1  0  0  0  0
  7  8  1  0  0  0  0
  8  9  1  0  0  0  0
  9 10  1  0  0  0  0
 10 11  1  0  0  0  0
 11 12  1  0  0  0  0
 12 13  1  0  0  0  0
 13 14  1  0  0  0  0
 14 15  1  0  0  0  0
 15  3  1  0  0  0  0
  1 16  1  0  0  0  0
  3 17  1  1  0  0  0
 15 18  1  1  0  0  0
 14 19  1  1  0  0  0
 10 20  1  1  0  0  0
  6 21  1  1  0  0  0
  4 22  1  6  0  0  0
  6 23  1  6  0  0  0
 14 24  1  6  0  0  0
 13 25  1  6  0  0  0
  9 26  1  6  0  0  0
  7 27  1  6  0  0  0
 11 28  2  0  0  0  0
 25 29  1  0  0  0  0
 32 27  1  1  0  0  0
 30 26  1  1  0  0  0
 31 32  1  0  0  0  0
 32 33  1  0  0  0  0
 33 34  1  0  0  0  0
 34 35  1  0  0  0  0
 35 36  1  0  0  0  0
 31 36  1  0  0  0  0
 37 30  1  0  0  0  0
 30 38  1  0  0  0  0
 38 39  1  0  0  0  0
 39 40  1  0  0  0  0
 40 41  1  0  0  0  0
 37 41  1  0  0  0  0
 31 42  1  6  0  0  0
 39 43  1  6  0  0  0
 41 44  1  6  0  0  0
 34 45  1  1  0  0  0
 36 46  1  1  0  0  0
 41 47  1  1  0  0  0
 40 48  1  1  0  0  0
 47 49  1  0  0  0  0
 46 50  1  0  0  0  0
 46 51  1  0  0  0  0
  8 52  1  6  0  0  0
M  END
>  <DRUGBANK_ID>
DB00207

>  <DRUG_GROUPS>
approved

>  <GENERIC_NAME>
Azithromycin

>  <SYNONYMS>
Azithramycine; Azithromycin Dihydrate; Azithromycine [French]; Azithromycinum [Latin]; Azitromicina [Spanish]

>  <BRANDS>
Azenil; Azibiot; Azifine; Azitromax; Aziwok; Aztrin; Hemomycin; Misultina; Mixoterin; Setron; Sumamed; Tobil; Tromix; Vinzam; Zeto; Zifin; Zithrax; Zithromax; Zitrim; Zitrocin; Zitromax; Zitrotek; Zmax

>  <CHEMICAL_FORMULA>
C38H72N2O12

>  <MOLECULAR_WEIGHT>
748.9845

>  <EXACT_MASS>
748.508525778

>  <IUPAC_NAME>
(2R,3S,4R,5R,8R,10R,11R,12S,13S,14R)-11-{[(2S,3R,4S,6R)-4-(dimethylamino)-3-hydroxy-6-methyloxan-2-yl]oxy}-2-ethyl-3,4,10-trihydroxy-13-{[(2R,4R,5S,6S)-5-hydroxy-4-methoxy-4,6-dimethyloxan-2-yl]oxy}-3,5,6,8,10,12,14-heptamethyl-1-oxa-6-azacyclopentadecan-15-one

>  <INCHI_IDENTIFIER>
InChI=1S/C38H72N2O12/c1-15-27-38(10,46)31(42)24(6)40(13)19-20(2)17-36(8,45)33(52-35-29(41)26(39(11)12)16-21(3)48-35)22(4)30(23(5)34(44)50-27)51-28-18-37(9,47-14)32(43)25(7)49-28/h20-33,35,41-43,45-46H,15-19H2,1-14H3/t20-,21-,22+,23-,24-,25+,26+,27-,28+,29-,30+,31-,32+,33-,35+,36-,37-,38-/m1/s1

>  <INCHI_KEY>
InChIKey=MQTOSJVFKKJCRP-BICOPXKESA-N

>  <SMILES>
CC[C@H]1OC(=O)[C@H](C)[C@@H](O[C@H]2C[C@@](C)(OC)[C@@H](O)[C@H](C)O2)[C@H](C)[C@@H](O[C@@H]2O[C@H](C)C[C@@H]([C@H]2O)N(C)C)[C@](C)(O)C[C@@H](C)CN(C)[C@H](C)[C@@H](O)[C@]1(C)O

>  <JCHEM_ACCEPTOR_COUNT>
13

>  <JCHEM_DONOR_COUNT>
5

>  <JCHEM_ACIDIC_PKA>
12.43

>  <JCHEM_BASIC_PKA>
9.57

>  <JCHEM_PHYSIOLOGICAL_CHARGE>
2

>  <ALOGPS_LOGP>
3.03

>  <JCHEM_LOGP>
2.44

>  <ALOGPS_LOGS>
-3.2

>  <JCHEM_POLARIZABILITY>
83.11

>  <JCHEM_POLAR_SURFACE_AREA>
180.08

>  <JCHEM_REFRACTIVITY>
194.11

>  <JCHEM_ROTATABLE_BOND_COUNT>
7

>  <ALOGPS_SOLUBILITY>
5.14e-01 g/l

$$$$
208
  Mrv0541 02231214312D          

 17 19  0  0  1  0            999 V2000
    2.3645    1.2375    0.0000 Cl  0  0  0  0  0  0  0  0  0  0  0  0
    6.7176   -1.0764    0.0000 S   0  0  0  0  0  0  0  0  0  0  0  0
    4.5080    0.0000    0.0000 N   0  0  0  0  0  0  0  0  0  0  0  0
    4.5080   -0.8250    0.0000 C   0  0  0  0  0  0  0  0  0  0  0  0
    5.2224    0.4125    0.0000 C   0  0  0  0  0  0  0  0  0  0  0  0
    5.2224   -1.2375    0.0000 C   0  0  0  0  0  0  0  0  0  0  0  0
    5.9370    0.0000    0.0000 C   0  0  0  0  0  0  0  0  0  0  0  0
    5.9370   -0.8250    0.0000 C   0  0  0  0  0  0  0  0  0  0  0  0
    3.7935    0.4125    0.0000 C   0  0  0  0  0  0  0  0  0  0  0  0
    3.0791    0.0000    0.0000 C   0  0  0  0  0  0  0  0  0  0  0  0
    6.7176    0.2514    0.0000 C   0  0  0  0  0  0  0  0  0  0  0  0
    7.1991   -0.4125    0.0000 C   0  0  0  0  0  0  0  0  0  0  0  0
    2.3645    0.4125    0.0000 C   0  0  0  0  0  0  0  0  0  0  0  0
    3.0791   -0.8250    0.0000 C   0  0  0  0  0  0  0  0  0  0  0  0
    1.6500    0.0000    0.0000 C   0  0  0  0  0  0  0  0  0  0  0  0
    2.3645   -1.2375    0.0000 C   0  0  0  0  0  0  0  0  0  0  0  0
    1.6500   -0.8250    0.0000 C   0  0  0  0  0  0  0  0  0  0  0  0
  1 13  1  0  0  0  0
  2  8  1  0  0  0  0
  2 12  1  0  0  0  0
  3  4  1  0  0  0  0
  3  5  1  0  0  0  0
  3  9  1  0  0  0  0
  4  6  1  0  0  0  0
  5  7  1  0  0  0  0
  6  8  1  0  0  0  0
  7  8  2  0  0  0  0
  7 11  1  0  0  0  0
  9 10  1  0  0  0  0
 10 13  1  0  0  0  0
 10 14  2  0  0  0  0
 11 12  2  0  0  0  0
 13 15  2  0  0  0  0
 14 16  1  0  0  0  0
 15 17  1  0  0  0  0
 16 17  2  0  0  0  0
M  END
>  <DRUGBANK_ID>
DB00208

>  <DRUG_GROUPS>
approved

>  <GENERIC_NAME>
Ticlopidine

>  <SYNONYMS>
4-C-32; 53-32C

>  <SALTS>
Ticlopidine Hydrochloride

>  <BRANDS>
Ticlid

>  <CHEMICAL_FORMULA>
C14H14ClNS

>  <MOLECULAR_WEIGHT>
263.786

>  <EXACT_MASS>
263.05354785

>  <IUPAC_NAME>
5-[(2-chlorophenyl)methyl]-4H,5H,6H,7H-thieno[3,2-c]pyridine

>  <INCHI_IDENTIFIER>
InChI=1S/C14H14ClNS/c15-13-4-2-1-3-11(13)9-16-7-5-14-12(10-16)6-8-17-14/h1-4,6,8H,5,7,9-10H2

>  <INCHI_KEY>
InChIKey=PHWBOXQYWZNQIN-UHFFFAOYSA-N

>  <SMILES>
ClC1=CC=CC=C1CN1CCC2=C(C1)C=CS2

>  <JCHEM_ACCEPTOR_COUNT>
1

>  <JCHEM_DONOR_COUNT>
0

>  <JCHEM_BASIC_PKA>
7.31

>  <JCHEM_PHYSIOLOGICAL_CHARGE>
1

>  <ALOGPS_LOGP>
4.25

>  <JCHEM_LOGP>
4.2

>  <ALOGPS_LOGS>
-4.1

>  <JCHEM_POLARIZABILITY>
27.99

>  <JCHEM_POLAR_SURFACE_AREA>
3.24

>  <JCHEM_REFRACTIVITY>
74.33

>  <JCHEM_ROTATABLE_BOND_COUNT>
2

>  <ALOGPS_SOLUBILITY>
2.19e-02 g/l

$$$$
5596
  Mrv0541 02231214312D          

 29 33  0  0  1  0            999 V2000
    7.3397    0.4677    0.0000 O   0  0  0  0  0  0  0  0  0  0  0  0
    6.9699   -0.9125    0.0000 O   0  0  0  0  0  0  0  0  0  0  0  0
    8.5636    0.2542    0.0000 O   0  0  0  0  0  0  0  0  0  0  0  0
    2.9558    0.6113    0.0000 N   0  3  0  0  0  0  0  0  0  0  0  0
    4.7088    1.8208    0.0000 C   0  0  0  0  0  0  0  0  0  0  0  0
    4.4952    1.0238    0.0000 C   0  0  0  0  0  0  0  0  0  0  0  0
    4.4030    2.9334    0.0000 C   0  0  0  0  0  0  0  0  0  0  0  0
    3.6886    2.5209    0.0000 C   0  0  0  0  0  0  0  0  0  0  0  0
    2.8696   -0.2091    0.0000 C   0  0  0  0  0  0  0  0  0  0  0  0
    2.2020    0.9469    0.0000 C   0  0  0  0  0  0  0  0  0  0  0  0
    6.2472    1.4514    0.0000 C   0  0  0  0  0  0  0  0  0  0  0  0
    5.9016    0.1620    0.0000 C   0  0  0  0  0  0  0  0  0  0  0  0
    6.5428    0.6812    0.0000 C   0  0  0  0  0  0  0  0  0  0  0  0
    1.6500    0.3338    0.0000 C   0  0  0  0  0  0  0  0  0  0  0  0
    2.0625   -0.3807    0.0000 C   0  0  0  0  0  0  0  0  0  0  0  0
    7.5532   -0.3292    0.0000 C   0  0  0  0  0  0  0  0  0  0  0  0
    8.3501   -0.5427    0.0000 C   0  0  0  0  0  0  0  0  0  0  0  0
    9.1470   -0.7563    0.0000 C   0  0  0  0  0  0  0  0  0  0  0  0
    8.1366   -1.3397    0.0000 C   0  0  0  0  0  0  0  0  0  0  0  0
    9.7304   -0.1728    0.0000 C   0  0  0  0  0  0  0  0  0  0  0  0
    8.7200   -1.9230    0.0000 C   0  0  0  0  0  0  0  0  0  0  0  0
    9.3606   -1.5532    0.0000 C   0  0  0  0  0  0  0  0  0  0  0  0
    7.3397   -1.5532    0.0000 C   0  0  0  0  0  0  0  0  0  0  0  0
   10.5273   -0.3864    0.0000 C   0  0  0  0  0  0  0  0  0  0  0  0
    8.5065   -2.7199    0.0000 C   0  0  0  0  0  0  0  0  0  0  0  0
   10.1575   -1.7667    0.0000 C   0  0  0  0  0  0  0  0  0  0  0  0
    7.1261   -2.3500    0.0000 C   0  0  0  0  0  0  0  0  0  0  0  0
   10.7408   -1.1833    0.0000 C   0  0  0  0  0  0  0  0  0  0  0  0
    7.7096   -2.9334    0.0000 C   0  0  0  0  0  0  0  0  0  0  0  0
  1 13  1  0  0  0  0
  1 16  1  0  0  0  0
  2 16  2  0  0  0  0
  3 17  1  0  0  0  0
  4  5  1  0  0  0  0
  4  6  1  0  0  0  0
  4  9  1  0  0  0  0
  4 10  1  0  0  0  0
  5  7  1  0  0  0  0
  5 11  1  0  0  0  0
  6  8  1  0  0  0  0
  6 12  1  0  0  0  0
  7  8  1  0  0  0  0
  9 15  1  0  0  0  0
 10 14  1  0  0  0  0
 11 13  1  0  0  0  0
 12 13  1  0  0  0  0
 14 15  1  0  0  0  0
 16 17  1  0  0  0  0
 17 18  1  0  0  0  0
 17 19  1  0  0  0  0
 18 20  2  0  0  0  0
 18 22  1  0  0  0  0
 19 21  2  0  0  0  0
 19 23  1  0  0  0  0
 20 24  1  0  0  0  0
 21 25  1  0  0  0  0
 22 26  2  0  0  0  0
 23 27  2  0  0  0  0
 24 28  2  0  0  0  0
 25 29  2  0  0  0  0
 26 28  1  0  0  0  0
 27 29  1  0  0  0  0
M  CHG  1   4   1
M  END
>  <DRUGBANK_ID>
DB00209

>  <DRUG_GROUPS>
approved

>  <GENERIC_NAME>
Trospium

>  <BRANDS>
Sanctura; Spasmex; Spasmoplex; Trosec

>  <CHEMICAL_FORMULA>
C25H30NO3

>  <MOLECULAR_WEIGHT>
392.5106

>  <EXACT_MASS>
392.222568831

>  <IUPAC_NAME>
3-[(2-hydroxy-2,2-diphenylacetyl)oxy]-8$l^{5}-azaspiro[bicyclo[3.2.1]octane-8,1'-pyrrolidin]-8-ylium

>  <INCHI_IDENTIFIER>
InChI=1S/C25H30NO3/c27-24(25(28,19-9-3-1-4-10-19)20-11-5-2-6-12-20)29-23-17-21-13-14-22(18-23)26(21)15-7-8-16-26/h1-6,9-12,21-23,28H,7-8,13-18H2/q+1

>  <INCHI_KEY>
InChIKey=OYYDSUSKLWTMMQ-UHFFFAOYSA-N

>  <SMILES>
OC(C(=O)OC1CC2CCC(C1)[N+]21CCCC1)(C1=CC=CC=C1)C1=CC=CC=C1

>  <JCHEM_ACCEPTOR_COUNT>
2

>  <JCHEM_DONOR_COUNT>
1

>  <JCHEM_ACIDIC_PKA>
11.05

>  <JCHEM_BASIC_PKA>
-4.5

>  <JCHEM_PHYSIOLOGICAL_CHARGE>
1

>  <ALOGPS_LOGP>
2.86

>  <JCHEM_LOGP>
-0.5

>  <ALOGPS_LOGS>
-6.8

>  <JCHEM_POLARIZABILITY>
43.18

>  <JCHEM_POLAR_SURFACE_AREA>
46.53

>  <JCHEM_REFRACTIVITY>
124.04

>  <JCHEM_ROTATABLE_BOND_COUNT>
5

>  <ALOGPS_SOLUBILITY>
6.68e-05 g/l

$$$$
210
  Mrv0541 02231214312D          

 31 36  0  0  0  0            999 V2000
    2.4469   -3.8851    0.0000 O   0  0  0  0  0  0  0  0  0  0  0  0
    2.9958    3.7168    0.0000 O   0  0  0  0  0  0  0  0  0  0  0  0
    4.3746    3.3417    0.0000 O   0  0  0  0  0  0  0  0  0  0  0  0
    4.0407   -3.4580    0.0000 C   0  0  0  0  0  0  0  0  0  0  0  0
    4.1604   -3.8170    0.0000 C   0  0  0  0  0  0  0  0  0  0  0  0
    5.4205   -3.4580    0.0000 C   0  0  0  0  0  0  0  0  0  0  0  0
    4.7306   -2.2632    0.0000 C   0  0  0  0  0  0  0  0  0  0  0  0
    3.3504   -3.8563    0.0000 C   0  0  0  0  0  0  0  0  0  0  0  0
    4.7306   -3.7078    0.0000 C   0  0  0  0  0  0  0  0  0  0  0  0
    4.0407   -2.6615    0.0000 C   0  0  0  0  0  0  0  0  0  0  0  0
    4.9076   -4.2103    0.0000 C   0  0  0  0  0  0  0  0  0  0  0  0
    4.1604   -2.9546    0.0000 C   0  0  0  0  0  0  0  0  0  0  0  0
    5.4205   -2.6615    0.0000 C   0  0  0  0  0  0  0  0  0  0  0  0
    3.4574   -2.8747    0.0000 C   0  0  0  0  0  0  0  0  0  0  0  0
    2.6604   -3.0883    0.0000 C   0  0  0  0  0  0  0  0  0  0  0  0
    3.6709   -2.0778    0.0000 C   0  0  0  0  0  0  0  0  0  0  0  0
    3.0875   -1.4944    0.0000 C   0  0  0  0  0  0  0  0  0  0  0  0
    2.0770   -2.5049    0.0000 C   0  0  0  0  0  0  0  0  0  0  0  0
    2.2906   -1.7079    0.0000 C   0  0  0  0  0  0  0  0  0  0  0  0
    3.3010   -0.6975    0.0000 C   0  0  0  0  0  0  0  0  0  0  0  0
    1.6500   -4.0986    0.0000 C   0  0  0  0  0  0  0  0  0  0  0  0
    2.7177   -0.1142    0.0000 C   0  0  0  0  0  0  0  0  0  0  0  0
    4.0979   -0.4840    0.0000 C   0  0  0  0  0  0  0  0  0  0  0  0
    2.9312    0.6828    0.0000 C   0  0  0  0  0  0  0  0  0  0  0  0
    4.3114    0.3129    0.0000 C   0  0  0  0  0  0  0  0  0  0  0  0
    3.7280    0.8963    0.0000 C   0  0  0  0  0  0  0  0  0  0  0  0
    2.3142    1.2810    0.0000 C   0  0  0  0  0  0  0  0  0  0  0  0
    3.9633    1.7228    0.0000 C   0  0  0  0  0  0  0  0  0  0  0  0
    2.5302    2.1127    0.0000 C   0  0  0  0  0  0  0  0  0  0  0  0
    3.3603    2.3351    0.0000 C   0  0  0  0  0  0  0  0  0  0  0  0
    3.5769    3.1312    0.0000 C   0  0  0  0  0  0  0  0  0  0  0  0
  1 15  1  0  0  0  0
  1 21  1  0  0  0  0
  2 31  1  0  0  0  0
  3 31  2  0  0  0  0
  4  8  1  0  0  0  0
  4  9  1  0  0  0  0
  4 10  1  0  0  0  0
  4 14  1  0  0  0  0
  5  8  1  0  0  0  0
  5 11  1  0  0  0  0
  5 12  1  0  0  0  0
  6  9  1  0  0  0  0
  6 11  1  0  0  0  0
  6 13  1  0  0  0  0
  7 10  1  0  0  0  0
  7 12  1  0  0  0  0
  7 13  1  0  0  0  0
 14 15  2  0  0  0  0
 14 16  1  0  0  0  0
 15 18  1  0  0  0  0
 16 17  2  0  0  0  0
 17 19  1  0  0  0  0
 17 20  1  0  0  0  0
 18 19  2  0  0  0  0
 20 22  2  0  0  0  0
 20 23  1  0  0  0  0
 22 24  1  0  0  0  0
 23 25  2  0  0  0  0
 24 26  2  0  0  0  0
 24 27  1  0  0  0  0
 25 26  1  0  0  0  0
 26 28  1  0  0  0  0
 27 29  2  0  0  0  0
 28 30  2  0  0  0  0
 29 30  1  0  0  0  0
 30 31  1  0  0  0  0
M  END
>  <DRUGBANK_ID>
DB00210

>  <DRUG_GROUPS>
approved

>  <GENERIC_NAME>
Adapalene

>  <SYNONYMS>
Adapaleno [INN-Spanish]; Adapalenum [INN-Latin]

>  <BRANDS>
Adaferin; Differin

>  <CHEMICAL_FORMULA>
C28H28O3

>  <MOLECULAR_WEIGHT>
412.5201

>  <EXACT_MASS>
412.203844762

>  <IUPAC_NAME>
6-[3-(adamantan-1-yl)-4-methoxyphenyl]naphthalene-2-carboxylic acid

>  <INCHI_IDENTIFIER>
InChI=1S/C28H28O3/c1-31-26-7-6-23(21-2-3-22-12-24(27(29)30)5-4-20(22)11-21)13-25(26)28-14-17-8-18(15-28)10-19(9-17)16-28/h2-7,11-13,17-19H,8-10,14-16H2,1H3,(H,29,30)

>  <INCHI_KEY>
InChIKey=LZCDAPDGXCYOEH-UHFFFAOYSA-N

>  <SMILES>
COC1=C(C=C(C=C1)C1=CC2=C(C=C1)C=C(C=C2)C(O)=O)C12CC3CC(CC(C3)C1)C2

>  <JCHEM_ACCEPTOR_COUNT>
3

>  <JCHEM_DONOR_COUNT>
1

>  <JCHEM_ACIDIC_PKA>
3.99

>  <JCHEM_BASIC_PKA>
-4.8

>  <JCHEM_PHYSIOLOGICAL_CHARGE>
-1

>  <ALOGPS_LOGP>
6.06

>  <JCHEM_LOGP>
6.46

>  <ALOGPS_LOGS>
-8

>  <JCHEM_POLARIZABILITY>
47.65

>  <JCHEM_POLAR_SURFACE_AREA>
46.53

>  <JCHEM_REFRACTIVITY>
122.07

>  <JCHEM_ROTATABLE_BOND_COUNT>
4

>  <ALOGPS_SOLUBILITY>
4.01e-06 g/l

$$$$
211
  Mrv0541 02231214312D          

 18 18  0  0  1  0            999 V2000
    3.0791    0.3630    0.0000 O   0  0  0  0  0  0  0  0  0  0  0  0
    2.3645   -0.8745    0.0000 O   0  0  0  0  0  0  0  0  0  0  0  0
    5.2224   -2.5246    0.0000 O   0  0  0  0  0  0  0  0  0  0  0  0
    5.9370    1.1880    0.0000 O   0  0  0  0  0  0  0  0  0  0  0  0
    4.5080    1.1880    0.0000 N   0  0  0  0  0  0  0  0  0  0  0  0
    5.9370    2.8381    0.0000 N   0  0  0  0  0  0  0  0  0  0  0  0
    3.7935   -0.0495    0.0000 C   0  0  0  0  0  0  0  0  0  0  0  0
    3.7935   -0.8745    0.0000 C   0  0  0  0  0  0  0  0  0  0  0  0
    4.5080    0.3630    0.0000 C   0  0  0  0  0  0  0  0  0  0  0  0
    3.0791   -1.2870    0.0000 C   0  0  0  0  0  0  0  0  0  0  0  0
    4.5080   -1.2870    0.0000 C   0  0  0  0  0  0  0  0  0  0  0  0
    4.5080   -2.1120    0.0000 C   0  0  0  0  0  0  0  0  0  0  0  0
    3.0791   -2.1120    0.0000 C   0  0  0  0  0  0  0  0  0  0  0  0
    3.7935   -2.5246    0.0000 C   0  0  0  0  0  0  0  0  0  0  0  0
    5.2224    1.6005    0.0000 C   0  0  0  0  0  0  0  0  0  0  0  0
    5.2224    2.4256    0.0000 C   0  0  0  0  0  0  0  0  0  0  0  0
    1.6500   -1.2870    0.0000 C   0  0  0  0  0  0  0  0  0  0  0  0
    5.2224   -3.3496    0.0000 C   0  0  0  0  0  0  0  0  0  0  0  0
  1  7  1  0  0  0  0
  2 10  1  0  0  0  0
  2 17  1  0  0  0  0
  3 12  1  0  0  0  0
  3 18  1  0  0  0  0
  4 15  2  0  0  0  0
  5  9  1  0  0  0  0
  5 15  1  0  0  0  0
  6 16  1  0  0  0  0
  7  8  1  0  0  0  0
  7  9  1  0  0  0  0
  8 10  2  0  0  0  0
  8 11  1  0  0  0  0
 10 13  1  0  0  0  0
 11 12  2  0  0  0  0
 12 14  1  0  0  0  0
 13 14  2  0  0  0  0
 15 16  1  0  0  0  0
M  END
>  <DRUGBANK_ID>
DB00211

>  <DRUG_GROUPS>
approved

>  <GENERIC_NAME>
Midodrine

>  <SYNONYMS>
Midodrin; Midodrina [INN-Spanish]; Midodrine HCL; midodrine hydrochloride; Midodrinum [INN-Latin]

>  <BRANDS>
ProAmatine

>  <CHEMICAL_FORMULA>
C12H18N2O4

>  <MOLECULAR_WEIGHT>
254.2823

>  <EXACT_MASS>
254.126657074

>  <IUPAC_NAME>
2-amino-N-[2-(2,5-dimethoxyphenyl)-2-hydroxyethyl]acetamide

>  <INCHI_IDENTIFIER>
InChI=1S/C12H18N2O4/c1-17-8-3-4-11(18-2)9(5-8)10(15)7-14-12(16)6-13/h3-5,10,15H,6-7,13H2,1-2H3,(H,14,16)

>  <INCHI_KEY>
InChIKey=PTKSEFOSCHHMPD-UHFFFAOYSA-N

>  <SMILES>
COC1=CC(C(O)CNC(=O)CN)=C(OC)C=C1

>  <JCHEM_ACCEPTOR_COUNT>
5

>  <JCHEM_DONOR_COUNT>
3

>  <JCHEM_ACIDIC_PKA>
13.77

>  <JCHEM_BASIC_PKA>
8.14

>  <JCHEM_PHYSIOLOGICAL_CHARGE>
1

>  <ALOGPS_LOGP>
-0.49

>  <JCHEM_LOGP>
-0.95

>  <ALOGPS_LOGS>
-1.8

>  <JCHEM_POLARIZABILITY>
26.65

>  <JCHEM_POLAR_SURFACE_AREA>
93.81

>  <JCHEM_REFRACTIVITY>
66.22

>  <JCHEM_ROTATABLE_BOND_COUNT>
6

>  <ALOGPS_SOLUBILITY>
4.45e+00 g/l

$$$$
212
  Mrv0541 02231214312D          

 44 47  0  0  1  0            999 V2000
    6.3799    1.9668    0.0000 S   0  0  0  0  0  0  0  0  0  0  0  0
    2.0930    0.3168    0.0000 O   0  0  0  0  0  0  0  0  0  0  0  0
    4.2365    0.7293    0.0000 O   0  0  0  0  0  0  0  0  0  0  0  0
    4.9509    0.3168    0.0000 O   0  0  0  0  0  0  0  0  0  0  0  0
    5.9674    1.2523    0.0000 O   0  0  0  0  0  0  0  0  0  0  0  0
    5.6655    2.3794    0.0000 O   0  0  0  0  0  0  0  0  0  0  0  0
    5.6655    0.7293    0.0000 O   0  0  0  0  0  0  0  0  0  0  0  0
    4.2365   -0.9207    0.0000 N   0  0  0  0  0  0  0  0  0  0  0  0
    6.3799   -0.5082    0.0000 N   0  0  0  0  0  0  0  0  0  0  0  0
    6.4662   -2.9787    0.0000 N   0  0  0  0  0  0  0  0  0  0  0  0
    7.6857   -2.4358    0.0000 N   0  0  0  0  0  0  0  0  0  0  0  0
    2.8075    1.5543    0.0000 C   0  0  0  0  0  0  0  0  0  0  0  0
    3.2200    2.2688    0.0000 C   0  0  0  0  0  0  0  0  0  0  0  0
    2.3950    2.2688    0.0000 C   0  0  0  0  0  0  0  0  0  0  0  0
    2.8075    0.7293    0.0000 C   0  0  2  0  0  0  0  0  0  0  0  0
    3.5220    0.3168    0.0000 C   0  0  2  0  0  0  0  0  0  0  0  0
    3.5220   -0.5082    0.0000 C   0  0  1  0  0  0  0  0  0  0  0  0
    2.8075   -1.7457    0.0000 C   0  0  0  0  0  0  0  0  0  0  0  0
    2.8075   -0.9207    0.0000 C   0  0  0  0  0  0  0  0  0  0  0  0
    2.0930   -2.1582    0.0000 C   0  0  0  0  0  0  0  0  0  0  0  0
    3.5220   -2.1582    0.0000 C   0  0  0  0  0  0  0  0  0  0  0  0
    2.0930   -2.9833    0.0000 C   0  0  0  0  0  0  0  0  0  0  0  0
    3.5220   -2.9833    0.0000 C   0  0  0  0  0  0  0  0  0  0  0  0
    2.8075   -3.3958    0.0000 C   0  0  0  0  0  0  0  0  0  0  0  0
    4.9509   -0.5082    0.0000 C   0  0  0  0  0  0  0  0  0  0  0  0
    5.6655   -0.9207    0.0000 C   0  0  2  0  0  0  0  0  0  0  0  0
    5.6655   -1.7457    0.0000 C   0  0  0  0  0  0  0  0  0  0  0  0
    7.0944    0.7293    0.0000 C   0  0  1  0  0  0  0  0  0  0  0  0
    7.0944    1.5543    0.0000 C   0  0  0  0  0  0  0  0  0  0  0  0
    6.7925    2.6813    0.0000 C   0  0  0  0  0  0  0  0  0  0  0  0
    6.3799    0.3168    0.0000 C   0  0  0  0  0  0  0  0  0  0  0  0
    7.8089    0.3168    0.0000 C   0  0  0  0  0  0  0  0  0  0  0  0
    6.3799   -2.1582    0.0000 C   0  0  0  0  0  0  0  0  0  0  0  0
    7.5069    2.2688    0.0000 C   0  0  0  0  0  0  0  0  0  0  0  0
    6.0780    3.0938    0.0000 C   0  0  0  0  0  0  0  0  0  0  0  0
    7.2050    3.3958    0.0000 C   0  0  0  0  0  0  0  0  0  0  0  0
    8.5234    0.7293    0.0000 C   0  0  0  0  0  0  0  0  0  0  0  0
    7.1336   -1.8227    0.0000 C   0  0  0  0  0  0  0  0  0  0  0  0
    9.2379    0.3168    0.0000 C   0  0  0  0  0  0  0  0  0  0  0  0
    8.5234    1.5543    0.0000 C   0  0  0  0  0  0  0  0  0  0  0  0
    7.2732   -3.1503    0.0000 C   0  0  0  0  0  0  0  0  0  0  0  0
    9.9524    0.7293    0.0000 C   0  0  0  0  0  0  0  0  0  0  0  0
    9.2379    1.9668    0.0000 C   0  0  0  0  0  0  0  0  0  0  0  0
    9.9524    1.5543    0.0000 C   0  0  0  0  0  0  0  0  0  0  0  0
  1  5  2  0  0  0  0
  1  6  2  0  0  0  0
  1 29  1  0  0  0  0
  1 30  1  0  0  0  0
 15  2  1  6  0  0  0
 16  3  1  1  0  0  0
  4 25  2  0  0  0  0
  7 31  2  0  0  0  0
 17  8  1  6  0  0  0
  8 25  1  0  0  0  0
 26  9  1  1  0  0  0
  9 31  1  0  0  0  0
 10 33  1  0  0  0  0
 10 41  1  0  0  0  0
 11 38  1  0  0  0  0
 11 41  2  0  0  0  0
 12 13  1  0  0  0  0
 12 14  1  0  0  0  0
 12 15  1  0  0  0  0
 13 14  1  0  0  0  0
 15 16  1  0  0  0  0
 16 17  1  0  0  0  0
 17 19  1  0  0  0  0
 18 19  1  0  0  0  0
 18 20  1  0  0  0  0
 18 21  1  0  0  0  0
 20 22  1  0  0  0  0
 21 23  1  0  0  0  0
 22 24  1  0  0  0  0
 23 24  1  0  0  0  0
 25 26  1  0  0  0  0
 26 27  1  0  0  0  0
 27 33  1  0  0  0  0
 28 29  1  6  0  0  0
 28 31  1  0  0  0  0
 28 32  1  0  0  0  0
 30 34  1  0  0  0  0
 30 35  1  0  0  0  0
 30 36  1  0  0  0  0
 32 37  1  0  0  0  0
 33 38  2  0  0  0  0
 37 39  2  0  0  0  0
 37 40  1  0  0  0  0
 39 42  1  0  0  0  0
 40 43  2  0  0  0  0
 42 44  2  0  0  0  0
 43 44  1  0  0  0  0
M  END
>  <DRUGBANK_ID>
DB00212

>  <DRUG_GROUPS>
approved

>  <GENERIC_NAME>
Remikiren

>  <SYNONYMS>
Ro 42-5892

>  <CHEMICAL_FORMULA>
C33H50N4O6S

>  <MOLECULAR_WEIGHT>
630.838

>  <EXACT_MASS>
630.345106042

>  <IUPAC_NAME>
(2S)-2-[(2R)-2-benzyl-3-(2-methylpropane-2-sulfonyl)propanamido]-N-[(2R,3S,4R)-1-cyclohexyl-4-cyclopropyl-3,4-dihydroxybutan-2-yl]-3-(1H-imidazol-5-yl)propanamide

>  <INCHI_IDENTIFIER>
InChI=1S/C33H50N4O6S/c1-33(2,3)44(42,43)20-25(16-22-10-6-4-7-11-22)31(40)37-28(18-26-19-34-21-35-26)32(41)36-27(17-23-12-8-5-9-13-23)30(39)29(38)24-14-15-24/h4,6-7,10-11,19,21,23-25,27-30,38-39H,5,8-9,12-18,20H2,1-3H3,(H,34,35)(H,36,41)(H,37,40)/t25-,27+,28-,29+,30-/m0/s1

>  <INCHI_KEY>
InChIKey=UXIGZRQVLGFTOU-PUNKFERVSA-N

>  <SMILES>
CC(C)(C)S(=O)(=O)C[C@H](CC1=CC=CC=C1)C(=O)N[C@@H](CC1=CN=CN1)C(=O)N[C@H](CC1CCCCC1)[C@H](O)[C@H](O)C1CC1

>  <JCHEM_ACCEPTOR_COUNT>
7

>  <JCHEM_DONOR_COUNT>
5

>  <JCHEM_ACIDIC_PKA>
12.32

>  <JCHEM_BASIC_PKA>
6.74

>  <JCHEM_PHYSIOLOGICAL_CHARGE>
0

>  <ALOGPS_LOGP>
2.42

>  <JCHEM_LOGP>
2.37

>  <ALOGPS_LOGS>
-4.5

>  <JCHEM_POLARIZABILITY>
68.67

>  <JCHEM_POLAR_SURFACE_AREA>
161.48

>  <JCHEM_REFRACTIVITY>
169.6

>  <JCHEM_ROTATABLE_BOND_COUNT>
16

>  <ALOGPS_SOLUBILITY>
2.13e-02 g/l

$$$$
213
  Mrv0541 02231214312D          

 26 28  0  0  1  0            999 V2000
    7.3097    0.0000    0.0000 S   0  0  0  0  0  0  0  0  0  0  0  0
    2.3645   -0.4125    0.0000 F   0  0  0  0  0  0  0  0  0  0  0  0
    1.6500    0.8250    0.0000 F   0  0  0  0  0  0  0  0  0  0  0  0
    8.5472    0.7145    0.0000 O   0  0  0  0  0  0  0  0  0  0  0  0
    3.0791    0.8250    0.0000 O   0  0  0  0  0  0  0  0  0  0  0  0
    7.7222    0.7145    0.0000 O   0  0  0  0  0  0  0  0  0  0  0  0
   10.1972    0.7145    0.0000 O   0  0  0  0  0  0  0  0  0  0  0  0
    6.0031    0.6639    0.0000 N   0  0  0  0  0  0  0  0  0  0  0  0
    6.0031   -0.6639    0.0000 N   0  0  0  0  0  0  0  0  0  0  0  0
    8.9597   -1.4290    0.0000 N   0  0  0  0  0  0  0  0  0  0  0  0
    5.2224    0.4125    0.0000 C   0  0  0  0  0  0  0  0  0  0  0  0
    6.4846    0.0000    0.0000 C   0  0  0  0  0  0  0  0  0  0  0  0
    5.2224   -0.4125    0.0000 C   0  0  0  0  0  0  0  0  0  0  0  0
    7.7222   -0.7145    0.0000 C   0  0  0  0  0  0  0  0  0  0  0  0
    8.5472   -0.7145    0.0000 C   0  0  0  0  0  0  0  0  0  0  0  0
    4.5080    0.8250    0.0000 C   0  0  0  0  0  0  0  0  0  0  0  0
    4.5080   -0.8250    0.0000 C   0  0  0  0  0  0  0  0  0  0  0  0
    8.9597    0.0000    0.0000 C   0  0  0  0  0  0  0  0  0  0  0  0
    3.7935    0.4125    0.0000 C   0  0  0  0  0  0  0  0  0  0  0  0
    3.7935   -0.4125    0.0000 C   0  0  0  0  0  0  0  0  0  0  0  0
    9.7847    0.0000    0.0000 C   0  0  0  0  0  0  0  0  0  0  0  0
   10.1972   -0.7145    0.0000 C   0  0  0  0  0  0  0  0  0  0  0  0
    9.7847   -1.4290    0.0000 C   0  0  0  0  0  0  0  0  0  0  0  0
    8.9597    1.4290    0.0000 C   0  0  0  0  0  0  0  0  0  0  0  0
    2.3645    0.4125    0.0000 C   0  0  0  0  0  0  0  0  0  0  0  0
   11.0222    0.7145    0.0000 C   0  0  0  0  0  0  0  0  0  0  0  0
  1  6  2  0  0  0  0
  1 12  1  0  0  0  0
  1 14  1  0  0  0  0
  2 25  1  0  0  0  0
  3 25  1  0  0  0  0
  4 18  1  0  0  0  0
  4 24  1  0  0  0  0
  5 19  1  0  0  0  0
  5 25  1  0  0  0  0
  7 21  1  0  0  0  0
  7 26  1  0  0  0  0
  8 11  1  0  0  0  0
  8 12  1  0  0  0  0
  9 12  2  0  0  0  0
  9 13  1  0  0  0  0
 10 15  2  0  0  0  0
 10 23  1  0  0  0  0
 11 13  2  0  0  0  0
 11 16  1  0  0  0  0
 13 17  1  0  0  0  0
 14 15  1  0  0  0  0
 15 18  1  0  0  0  0
 16 19  2  0  0  0  0
 17 20  2  0  0  0  0
 18 21  2  0  0  0  0
 19 20  1  0  0  0  0
 21 22  1  0  0  0  0
 22 23  2  0  0  0  0
M  END
>  <DRUGBANK_ID>
DB00213

>  <DRUG_GROUPS>
approved

>  <GENERIC_NAME>
Pantoprazole

>  <SYNONYMS>
Pantoprazol [INN-Spanish]; Pantoprazole Na; Pantoprazole Sodium; Pantoprazolum [INN-Latin]; Pantoprozole

>  <BRANDS>
Astropan; Pantoloc; Pantor; Pantozol; Protium; Protonix; Protonix IV

>  <CHEMICAL_FORMULA>
C16H15F2N3O4S

>  <MOLECULAR_WEIGHT>
383.37

>  <EXACT_MASS>
383.075133083

>  <IUPAC_NAME>
6-(difluoromethoxy)-2-{[(3,4-dimethoxypyridin-2-yl)methane]sulfinyl}-1H-1,3-benzodiazole

>  <INCHI_IDENTIFIER>
InChI=1S/C16H15F2N3O4S/c1-23-13-5-6-19-12(14(13)24-2)8-26(22)16-20-10-4-3-9(25-15(17)18)7-11(10)21-16/h3-7,15H,8H2,1-2H3,(H,20,21)

>  <INCHI_KEY>
InChIKey=IQPSEEYGBUAQFF-UHFFFAOYSA-N

>  <SMILES>
COC1=C(OC)C(CS(=O)C2=NC3=C(N2)C=C(OC(F)F)C=C3)=NC=C1

>  <JCHEM_ACCEPTOR_COUNT>
6

>  <JCHEM_DONOR_COUNT>
1

>  <JCHEM_ACIDIC_PKA>
9.15

>  <JCHEM_BASIC_PKA>
3.55

>  <JCHEM_PHYSIOLOGICAL_CHARGE>
0

>  <ALOGPS_LOGP>
2.11

>  <JCHEM_LOGP>
2.18

>  <ALOGPS_LOGS>
-2.9

>  <JCHEM_POLARIZABILITY>
35.17

>  <JCHEM_POLAR_SURFACE_AREA>
86.33

>  <JCHEM_REFRACTIVITY>
90.05

>  <JCHEM_ROTATABLE_BOND_COUNT>
7

>  <ALOGPS_SOLUBILITY>
4.95e-01 g/l

$$$$
214
  Mrv0541 02231214312D          

 24 25  0  0  0  0            999 V2000
    5.9363   -0.4125    0.0000 S   0  0  0  0  0  0  0  0  0  0  0  0
    5.1114   -0.4125    0.0000 O   0  0  0  0  0  0  0  0  0  0  0  0
    6.7612   -0.4125    0.0000 O   0  0  0  0  0  0  0  0  0  0  0  0
    7.3650    0.4125    0.0000 O   0  0  0  0  0  0  0  0  0  0  0  0
    6.6507    1.6498    0.0000 N   0  0  0  0  0  0  0  0  0  0  0  0
    4.5075   -1.2374    0.0000 N   0  0  0  0  0  0  0  0  0  0  0  0
    5.9363    0.4125    0.0000 N   0  0  0  0  0  0  0  0  0  0  0  0
    6.6507   -2.4748    0.0000 N   0  0  0  0  0  0  0  0  0  0  0  0
    7.3650    2.0623    0.0000 C   0  0  0  0  0  0  0  0  0  0  0  0
    5.9363   -1.2374    0.0000 C   0  0  0  0  0  0  0  0  0  0  0  0
    5.2218   -1.6498    0.0000 C   0  0  0  0  0  0  0  0  0  0  0  0
    3.7930   -1.6498    0.0000 C   0  0  0  0  0  0  0  0  0  0  0  0
    7.3650    2.8873    0.0000 C   0  0  0  0  0  0  0  0  0  0  0  0
    8.0794    1.6498    0.0000 C   0  0  0  0  0  0  0  0  0  0  0  0
    6.6507    0.8249    0.0000 C   0  0  0  0  0  0  0  0  0  0  0  0
    6.6507   -1.6498    0.0000 C   0  0  0  0  0  0  0  0  0  0  0  0
    5.2218   -2.4748    0.0000 C   0  0  0  0  0  0  0  0  0  0  0  0
    3.0787   -1.2374    0.0000 C   0  0  0  0  0  0  0  0  0  0  0  0
    2.3642   -1.6498    0.0000 C   0  0  0  0  0  0  0  0  0  0  0  0
    3.7930   -2.4748    0.0000 C   0  0  0  0  0  0  0  0  0  0  0  0
    5.9363   -2.8873    0.0000 C   0  0  0  0  0  0  0  0  0  0  0  0
    2.3642   -2.4748    0.0000 C   0  0  0  0  0  0  0  0  0  0  0  0
    3.0787   -2.8873    0.0000 C   0  0  0  0  0  0  0  0  0  0  0  0
    1.6498   -1.2374    0.0000 C   0  0  0  0  0  0  0  0  0  0  0  0
  1  2  2  0  0  0  0
  1  3  2  0  0  0  0
  1  7  1  0  0  0  0
  1 10  1  0  0  0  0
  4 15  2  0  0  0  0
  5  9  1  0  0  0  0
  5 15  1  0  0  0  0
  6 11  1  0  0  0  0
  6 12  1  0  0  0  0
  7 15  1  0  0  0  0
  8 16  2  0  0  0  0
  8 21  1  0  0  0  0
  9 13  1  0  0  0  0
  9 14  1  0  0  0  0
 10 11  2  0  0  0  0
 10 16  1  0  0  0  0
 11 17  1  0  0  0  0
 12 18  1  0  0  0  0
 12 20  2  0  0  0  0
 17 21  2  0  0  0  0
 18 19  2  0  0  0  0
 19 22  1  0  0  0  0
 19 24  1  0  0  0  0
 20 23  1  0  0  0  0
 22 23  2  0  0  0  0
M  END
>  <DRUGBANK_ID>
DB00214

>  <DRUG_GROUPS>
approved

>  <GENERIC_NAME>
Torasemide

>  <SYNONYMS>
Torasemida [INN-Spanish]; Torasemidum [INN-Latin]; Torsemide

>  <BRANDS>
Demadex; Luprac

>  <CHEMICAL_FORMULA>
C16H20N4O3S

>  <MOLECULAR_WEIGHT>
348.42

>  <EXACT_MASS>
348.125611216

>  <IUPAC_NAME>
1-{4-[(3-methylphenyl)amino]pyridine-3-sulfonyl}-3-(propan-2-yl)urea

>  <INCHI_IDENTIFIER>
InChI=1S/C16H20N4O3S/c1-11(2)18-16(21)20-24(22,23)15-10-17-8-7-14(15)19-13-6-4-5-12(3)9-13/h4-11H,1-3H3,(H,17,19)(H2,18,20,21)

>  <INCHI_KEY>
InChIKey=NGBFQHCMQULJNZ-UHFFFAOYSA-N

>  <SMILES>
CC(C)NC(=O)NS(=O)(=O)C1=C(NC2=CC=CC(C)=C2)C=CN=C1

>  <JCHEM_ACCEPTOR_COUNT>
5

>  <JCHEM_DONOR_COUNT>
3

>  <JCHEM_ACIDIC_PKA>
5.92

>  <JCHEM_BASIC_PKA>
4.2

>  <JCHEM_PHYSIOLOGICAL_CHARGE>
-1

>  <ALOGPS_LOGP>
1.76

>  <JCHEM_LOGP>
1.86

>  <ALOGPS_LOGS>
-3.8

>  <JCHEM_POLARIZABILITY>
36.15

>  <JCHEM_POLAR_SURFACE_AREA>
100.19

>  <JCHEM_REFRACTIVITY>
91.89

>  <JCHEM_ROTATABLE_BOND_COUNT>
4

>  <ALOGPS_SOLUBILITY>
5.96e-02 g/l

$$$$
215
  Mrv0541 02231214312D          

 24 26  0  0  1  0            999 V2000
    7.9618    1.5353    0.0000 F   0  0  0  0  0  0  0  0  0  0  0  0
    5.7701   -1.0638    0.0000 O   0  0  0  0  0  0  0  0  0  0  0  0
    3.1681    1.5162    0.0000 N   0  0  0  0  0  0  0  0  0  0  0  0
    1.6500   -2.3013    0.0000 N   0  0  0  0  0  0  0  0  0  0  0  0
    5.2886   -0.3998    0.0000 C   0  0  0  0  0  0  0  0  0  0  0  0
    5.0351    0.3853    0.0000 C   0  0  0  0  0  0  0  0  0  0  0  0
    4.5080   -0.6513    0.0000 C   0  0  0  0  0  0  0  0  0  0  0  0
    4.5080   -1.4763    0.0000 C   0  0  0  0  0  0  0  0  0  0  0  0
    4.2284    0.5582    0.0000 C   0  0  0  0  0  0  0  0  0  0  0  0
    5.9569    0.0840    0.0000 C   0  0  0  0  0  0  0  0  0  0  0  0
    5.2886   -1.7277    0.0000 C   0  0  0  0  0  0  0  0  0  0  0  0
    3.9748    1.3433    0.0000 C   0  0  0  0  0  0  0  0  0  0  0  0
    3.7935   -0.2388    0.0000 C   0  0  0  0  0  0  0  0  0  0  0  0
    3.7935   -1.8888    0.0000 C   0  0  0  0  0  0  0  0  0  0  0  0
    5.8721    0.9046    0.0000 C   0  0  0  0  0  0  0  0  0  0  0  0
    6.7100   -0.2529    0.0000 C   0  0  0  0  0  0  0  0  0  0  0  0
    3.0790   -0.6513    0.0000 C   0  0  0  0  0  0  0  0  0  0  0  0
    3.0790   -1.4763    0.0000 C   0  0  0  0  0  0  0  0  0  0  0  0
    6.5404    1.3883    0.0000 C   0  0  0  0  0  0  0  0  0  0  0  0
    7.3783    0.2308    0.0000 C   0  0  0  0  0  0  0  0  0  0  0  0
    7.2935    1.0515    0.0000 C   0  0  0  0  0  0  0  0  0  0  0  0
    2.9145    2.3013    0.0000 C   0  0  0  0  0  0  0  0  0  0  0  0
    2.6150    0.9041    0.0000 C   0  0  0  0  0  0  0  0  0  0  0  0
    2.3645   -1.8888    0.0000 C   0  0  0  0  0  0  0  0  0  0  0  0
  1 21  1  0  0  0  0
  2  5  1  0  0  0  0
  2 11  1  0  0  0  0
  3 12  1  0  0  0  0
  3 22  1  0  0  0  0
  3 23  1  0  0  0  0
  4 24  3  0  0  0  0
  5  6  1  0  0  0  0
  5  7  1  0  0  0  0
  5 10  1  0  0  0  0
  6  9  1  0  0  0  0
  7  8  2  0  0  0  0
  7 13  1  0  0  0  0
  8 11  1  0  0  0  0
  8 14  1  0  0  0  0
  9 12  1  0  0  0  0
 10 15  2  0  0  0  0
 10 16  1  0  0  0  0
 13 17  2  0  0  0  0
 14 18  2  0  0  0  0
 15 19  1  0  0  0  0
 16 20  2  0  0  0  0
 17 18  1  0  0  0  0
 18 24  1  0  0  0  0
 19 21  2  0  0  0  0
 20 21  1  0  0  0  0
M  END
>  <DRUGBANK_ID>
DB00215

>  <DRUG_GROUPS>
approved

>  <GENERIC_NAME>
Citalopram

>  <SYNONYMS>
Citalopram Hydrobromide; Citalopramum [INN-Latin]

>  <BRANDS>
Akarin; Celapram; Celexa; Celius; Ciazil; Cilift; Cipram; Cipramil; Ciprapine; Citabax; Citalec; Citol; Citopam; Citox; Citrol; Dalsan; Elopram; Humorup; Nitalapram; Oropram; Pramcit; Recital; Seropram; Talam; Talohexal; Temperax; Vodelax; Zentius; Zetalo

>  <CHEMICAL_FORMULA>
C20H21FN2O

>  <MOLECULAR_WEIGHT>
324.3919

>  <EXACT_MASS>
324.163791509

>  <IUPAC_NAME>
1-[3-(dimethylamino)propyl]-1-(4-fluorophenyl)-1,3-dihydro-2-benzofuran-5-carbonitrile

>  <INCHI_IDENTIFIER>
InChI=1S/C20H21FN2O/c1-23(2)11-3-10-20(17-5-7-18(21)8-6-17)19-9-4-15(13-22)12-16(19)14-24-20/h4-9,12H,3,10-11,14H2,1-2H3

>  <INCHI_KEY>
InChIKey=WSEQXVZVJXJVFP-UHFFFAOYSA-N

>  <SMILES>
CN(C)CCCC1(OCC2=C1C=CC(=C2)C#N)C1=CC=C(F)C=C1

>  <JCHEM_ACCEPTOR_COUNT>
3

>  <JCHEM_DONOR_COUNT>
0

>  <JCHEM_BASIC_PKA>
9.78

>  <JCHEM_PHYSIOLOGICAL_CHARGE>
1

>  <ALOGPS_LOGP>
3.58

>  <JCHEM_LOGP>
3.76

>  <ALOGPS_LOGS>
-4.7

>  <JCHEM_POLARIZABILITY>
35.4

>  <JCHEM_POLAR_SURFACE_AREA>
36.26

>  <JCHEM_REFRACTIVITY>
94.02

>  <JCHEM_ROTATABLE_BOND_COUNT>
5

>  <ALOGPS_SOLUBILITY>
5.88e-03 g/l

$$$$
77993
  Mrv0541 02231214312D          

 27 30  0  0  1  0            999 V2000
    3.7935    0.1625    0.0000 S   0  0  0  0  0  0  0  0  0  0  0  0
    3.3810   -0.5519    0.0000 O   0  0  0  0  0  0  0  0  0  0  0  0
    4.2060    0.8770    0.0000 O   0  0  0  0  0  0  0  0  0  0  0  0
    9.8223    0.4027    0.0000 N   0  0  0  0  0  0  0  0  0  0  0  0
    8.1466   -1.3264    0.0000 N   0  0  0  0  0  0  0  0  0  0  0  0
    9.2102    0.9558    0.0000 C   0  0  2  0  0  0  0  0  0  0  0  0
    9.5470    1.7089    0.0000 C   0  0  0  0  0  0  0  0  0  0  0  0
   10.3673    1.6212    0.0000 C   0  0  0  0  0  0  0  0  0  0  0  0
   10.5375    0.8140    0.0000 C   0  0  0  0  0  0  0  0  0  0  0  0
    8.4029    0.7857    0.0000 C   0  0  0  0  0  0  0  0  0  0  0  0
    8.1466    0.0015    0.0000 C   0  0  0  0  0  0  0  0  0  0  0  0
    9.7346   -0.4177    0.0000 C   0  0  0  0  0  0  0  0  0  0  0  0
    7.3659   -0.2500    0.0000 C   0  0  0  0  0  0  0  0  0  0  0  0
    8.6280   -0.6625    0.0000 C   0  0  0  0  0  0  0  0  0  0  0  0
    7.3659   -1.0750    0.0000 C   0  0  0  0  0  0  0  0  0  0  0  0
    6.6515    0.1625    0.0000 C   0  0  0  0  0  0  0  0  0  0  0  0
    5.9370   -0.2500    0.0000 C   0  0  0  0  0  0  0  0  0  0  0  0
    6.6515   -1.4875    0.0000 C   0  0  0  0  0  0  0  0  0  0  0  0
    5.2224    0.1625    0.0000 C   0  0  0  0  0  0  0  0  0  0  0  0
    5.9370   -1.0750    0.0000 C   0  0  0  0  0  0  0  0  0  0  0  0
    4.5080   -0.2500    0.0000 C   0  0  0  0  0  0  0  0  0  0  0  0
    3.0790    0.5750    0.0000 C   0  0  0  0  0  0  0  0  0  0  0  0
    2.3645    0.1625    0.0000 C   0  0  0  0  0  0  0  0  0  0  0  0
    3.0790    1.4001    0.0000 C   0  0  0  0  0  0  0  0  0  0  0  0
    1.6500    0.5750    0.0000 C   0  0  0  0  0  0  0  0  0  0  0  0
    2.3645    1.8126    0.0000 C   0  0  0  0  0  0  0  0  0  0  0  0
    1.6500    1.4001    0.0000 C   0  0  0  0  0  0  0  0  0  0  0  0
  1  2  2  0  0  0  0
  1  3  2  0  0  0  0
  1 21  1  0  0  0  0
  1 22  1  0  0  0  0
  4  6  1  0  0  0  0
  4  9  1  0  0  0  0
  4 12  1  0  0  0  0
  5 14  1  0  0  0  0
  5 15  1  0  0  0  0
  6  7  1  0  0  0  0
  6 10  1  1  0  0  0
  7  8  1  0  0  0  0
  8  9  1  0  0  0  0
 10 11  1  0  0  0  0
 11 13  1  0  0  0  0
 11 14  2  0  0  0  0
 13 15  2  0  0  0  0
 13 16  1  0  0  0  0
 15 18  1  0  0  0  0
 16 17  2  0  0  0  0
 17 19  1  0  0  0  0
 17 20  1  0  0  0  0
 18 20  2  0  0  0  0
 19 21  1  0  0  0  0
 22 23  2  0  0  0  0
 22 24  1  0  0  0  0
 23 25  1  0  0  0  0
 24 26  2  0  0  0  0
 25 27  2  0  0  0  0
 26 27  1  0  0  0  0
M  END
>  <DRUGBANK_ID>
DB00216

>  <DRUG_GROUPS>
approved; investigational

>  <GENERIC_NAME>
Eletriptan

>  <BRANDS>
Relpax

>  <CHEMICAL_FORMULA>
C22H26N2O2S

>  <MOLECULAR_WEIGHT>
382.519

>  <EXACT_MASS>
382.171498776

>  <IUPAC_NAME>
5-[2-(benzenesulfonyl)ethyl]-3-{[(2R)-1-methylpyrrolidin-2-yl]methyl}-1H-indole

>  <INCHI_IDENTIFIER>
InChI=1S/C22H26N2O2S/c1-24-12-5-6-19(24)15-18-16-23-22-10-9-17(14-21(18)22)11-13-27(25,26)20-7-3-2-4-8-20/h2-4,7-10,14,16,19,23H,5-6,11-13,15H2,1H3/t19-/m1/s1

>  <INCHI_KEY>
InChIKey=PWVXXGRKLHYWKM-LJQANCHMSA-N

>  <SMILES>
CN1CCC[C@@H]1CC1=CNC2=C1C=C(CCS(=O)(=O)C1=CC=CC=C1)C=C2

>  <JCHEM_ACCEPTOR_COUNT>
3

>  <JCHEM_DONOR_COUNT>
1

>  <JCHEM_ACIDIC_PKA>
17.11

>  <JCHEM_BASIC_PKA>
8.37

>  <JCHEM_PHYSIOLOGICAL_CHARGE>
1

>  <ALOGPS_LOGP>
3.84

>  <JCHEM_LOGP>
3.77

>  <ALOGPS_LOGS>
-5.5

>  <JCHEM_POLARIZABILITY>
42.99

>  <JCHEM_POLAR_SURFACE_AREA>
53.17

>  <JCHEM_REFRACTIVITY>
110.94

>  <JCHEM_ROTATABLE_BOND_COUNT>
6

>  <ALOGPS_SOLUBILITY>
1.18e-03 g/l

$$$$
2368
  Mrv0541 02231214312D          

 13 13  0  0  0  0            999 V2000
    3.0790    0.4125    0.0000 N   0  0  0  0  0  0  0  0  0  0  0  0
    3.7934    1.6500    0.0000 N   0  0  0  0  0  0  0  0  0  0  0  0
    2.3645    1.6500    0.0000 N   0  0  0  0  0  0  0  0  0  0  0  0
    2.3645    0.0000    0.0000 C   0  0  0  0  0  0  0  0  0  0  0  0
    2.3645   -0.8250    0.0000 C   0  0  0  0  0  0  0  0  0  0  0  0
    3.0790   -1.2375    0.0000 C   0  0  0  0  0  0  0  0  0  0  0  0
    1.6500   -1.2375    0.0000 C   0  0  0  0  0  0  0  0  0  0  0  0
    3.0790    1.2375    0.0000 C   0  0  0  0  0  0  0  0  0  0  0  0
    3.0790   -2.0625    0.0000 C   0  0  0  0  0  0  0  0  0  0  0  0
    1.6500   -2.0625    0.0000 C   0  0  0  0  0  0  0  0  0  0  0  0
    2.3645   -2.4750    0.0000 C   0  0  0  0  0  0  0  0  0  0  0  0
    3.7934    2.4750    0.0000 C   0  0  0  0  0  0  0  0  0  0  0  0
    2.3645    2.4750    0.0000 C   0  0  0  0  0  0  0  0  0  0  0  0
  1  4  1  0  0  0  0
  1  8  1  0  0  0  0
  2  8  1  0  0  0  0
  2 12  1  0  0  0  0
  3  8  2  0  0  0  0
  3 13  1  0  0  0  0
  4  5  1  0  0  0  0
  5  6  2  0  0  0  0
  5  7  1  0  0  0  0
  6  9  1  0  0  0  0
  7 10  2  0  0  0  0
  9 11  2  0  0  0  0
 10 11  1  0  0  0  0
M  END
>  <DRUGBANK_ID>
DB00217

>  <DRUG_GROUPS>
approved

>  <GENERIC_NAME>
Bethanidine

>  <SYNONYMS>
Betanidine; Bethanidine sulfate

>  <BRANDS>
Esbatal; Tenathan

>  <CHEMICAL_FORMULA>
C10H15N3

>  <MOLECULAR_WEIGHT>
177.2462

>  <EXACT_MASS>
177.126597495

>  <IUPAC_NAME>
(E)-3-benzyl-1,2-dimethylguanidine

>  <INCHI_IDENTIFIER>
InChI=1S/C10H15N3/c1-11-10(12-2)13-8-9-6-4-3-5-7-9/h3-7H,8H2,1-2H3,(H2,11,12,13)

>  <INCHI_KEY>
InChIKey=NIVZHWNOUVJHKV-UHFFFAOYSA-N

>  <SMILES>
CN\C(NCC1=CC=CC=C1)=N/C

>  <JCHEM_ACCEPTOR_COUNT>
3

>  <JCHEM_DONOR_COUNT>
2

>  <JCHEM_BASIC_PKA>
12.41

>  <JCHEM_PHYSIOLOGICAL_CHARGE>
1

>  <ALOGPS_LOGP>
1.41

>  <JCHEM_LOGP>
1.27

>  <ALOGPS_LOGS>
-2

>  <JCHEM_POLARIZABILITY>
20.43

>  <JCHEM_POLAR_SURFACE_AREA>
36.42

>  <JCHEM_REFRACTIVITY>
54.5

>  <JCHEM_ROTATABLE_BOND_COUNT>
2

>  <ALOGPS_SOLUBILITY>
1.58e+00 g/l

$$$$
218
  Mrv0541 02231214312D          

 31 35  0  0  1  0            999 V2000
    4.1869    1.4711    0.0000 F   0  0  0  0  0  0  0  0  0  0  0  0
    5.6158   -1.0040    0.0000 O   0  0  0  0  0  0  0  0  0  0  0  0
    7.0583    2.3247    0.0000 O   0  0  0  0  0  0  0  0  0  0  0  0
    9.2443    1.0813    0.0000 O   0  0  0  0  0  0  0  0  0  0  0  0
    8.5251    2.3161    0.0000 O   0  0  0  0  0  0  0  0  0  0  0  0
    4.1869   -0.1789    0.0000 N   0  0  0  0  0  0  0  0  0  0  0  0
    2.8876   -1.8817    0.0000 N   0  0  0  0  0  0  0  0  0  0  0  0
    7.0678   -0.2075    0.0000 N   0  0  0  0  0  0  0  0  0  0  0  0
    2.8876   -0.4528    0.0000 C   0  0  2  0  0  0  0  0  0  0  0  0
    3.3001   -1.1672    0.0000 C   0  0  1  0  0  0  0  0  0  0  0  0
    3.4379    0.1554    0.0000 C   0  0  0  0  0  0  0  0  0  0  0  0
    4.1018   -0.9946    0.0000 C   0  0  0  0  0  0  0  0  0  0  0  0
    2.0625   -0.4528    0.0000 C   0  0  0  0  0  0  0  0  0  0  0  0
    7.0583   -1.0324    0.0000 C   0  0  0  0  0  0  0  0  0  0  0  0
    1.6500   -1.1672    0.0000 C   0  0  0  0  0  0  0  0  0  0  0  0
    6.6375   -1.7421    0.0000 C   0  0  0  0  0  0  0  0  0  0  0  0
    7.4625   -1.7517    0.0000 C   0  0  0  0  0  0  0  0  0  0  0  0
    2.0625   -1.8817    0.0000 C   0  0  0  0  0  0  0  0  0  0  0  0
    4.9014    0.2336    0.0000 C   0  0  0  0  0  0  0  0  0  0  0  0
    6.3303    0.2336    0.0000 C   0  0  0  0  0  0  0  0  0  0  0  0
    5.6158   -0.1789    0.0000 C   0  0  0  0  0  0  0  0  0  0  0  0
    6.3303    1.0586    0.0000 C   0  0  0  0  0  0  0  0  0  0  0  0
    4.9014    1.0586    0.0000 C   0  0  0  0  0  0  0  0  0  0  0  0
    7.8154    0.2164    0.0000 C   0  0  0  0  0  0  0  0  0  0  0  0
    5.6158    1.4711    0.0000 C   0  0  0  0  0  0  0  0  0  0  0  0
    7.8154    1.0758    0.0000 C   0  0  0  0  0  0  0  0  0  0  0  0
    7.0678    1.4997    0.0000 C   0  0  0  0  0  0  0  0  0  0  0  0
    8.5282    1.4911    0.0000 C   0  0  0  0  0  0  0  0  0  0  0  0
    4.9014   -1.4165    0.0000 C   0  0  0  0  0  0  0  0  0  0  0  0
    2.6199    0.1506    0.0000 H   0  0  0  0  0  0  0  0  0  0  0  0
    3.6887   -1.7007    0.0000 H   0  0  0  0  0  0  0  0  0  0  0  0
  1 23  1  0  0  0  0
  2 21  1  0  0  0  0
  2 29  1  0  0  0  0
  3 27  2  0  0  0  0
  4 28  1  0  0  0  0
  5 28  2  0  0  0  0
  6 11  1  0  0  0  0
  6 12  1  0  0  0  0
  6 19  1  0  0  0  0
  7 10  1  0  0  0  0
  7 18  1  0  0  0  0
  8 14  1  0  0  0  0
  8 20  1  0  0  0  0
  8 24  1  0  0  0  0
  9 10  1  0  0  0  0
  9 11  1  0  0  0  0
  9 13  1  0  0  0  0
  9 30  1  6  0  0  0
 10 12  1  0  0  0  0
 10 31  1  6  0  0  0
 13 15  1  0  0  0  0
 14 16  1  0  0  0  0
 14 17  1  0  0  0  0
 15 18  1  0  0  0  0
 16 17  1  0  0  0  0
 19 21  1  0  0  0  0
 19 23  2  0  0  0  0
 20 21  2  0  0  0  0
 20 22  1  0  0  0  0
 22 25  2  0  0  0  0
 22 27  1  0  0  0  0
 23 25  1  0  0  0  0
 24 26  2  0  0  0  0
 26 27  1  0  0  0  0
 26 28  1  0  0  0  0
M  END
>  <DRUGBANK_ID>
DB00218

>  <DRUG_GROUPS>
approved; investigational

>  <GENERIC_NAME>
Moxifloxacin

>  <SYNONYMS>
BAY 12-8039; Moxifloxacin HCl; Moxifloxacin hydrochloride

>  <BRANDS>
Avelox; Avelox I.V.; Vigamox

>  <CHEMICAL_FORMULA>
C21H24FN3O4

>  <MOLECULAR_WEIGHT>
401.4314

>  <EXACT_MASS>
401.175084476

>  <IUPAC_NAME>
7-[(4aS,7aS)-octahydro-1H-pyrrolo[3,4-b]pyridin-6-yl]-1-cyclopropyl-6-fluoro-8-methoxy-4-oxo-1,4-dihydroquinoline-3-carboxylic acid

>  <INCHI_IDENTIFIER>
InChI=1S/C21H24FN3O4/c1-29-20-17-13(19(26)14(21(27)28)9-25(17)12-4-5-12)7-15(22)18(20)24-8-11-3-2-6-23-16(11)10-24/h7,9,11-12,16,23H,2-6,8,10H2,1H3,(H,27,28)/t11-,16+/m0/s1

>  <INCHI_KEY>
InChIKey=FABPRXSRWADJSP-MEDUHNTESA-N

>  <SMILES>
[H][C@]12CN(C[C@@]1([H])NCCC2)C1=C(F)C=C2C(=O)C(=CN(C3CC3)C2=C1OC)C(O)=O

>  <JCHEM_ACCEPTOR_COUNT>
7

>  <JCHEM_DONOR_COUNT>
2

>  <JCHEM_ACIDIC_PKA>
5.69

>  <JCHEM_BASIC_PKA>
9.42

>  <JCHEM_PHYSIOLOGICAL_CHARGE>
0

>  <ALOGPS_LOGP>
0.01

>  <JCHEM_LOGP>
-0.5

>  <ALOGPS_LOGS>
-3.4

>  <JCHEM_POLARIZABILITY>
41.24

>  <JCHEM_POLAR_SURFACE_AREA>
82.11

>  <JCHEM_REFRACTIVITY>
106.22

>  <JCHEM_ROTATABLE_BOND_COUNT>
4

>  <ALOGPS_SOLUBILITY>
1.68e-01 g/l

$$$$
