
  CDK     0331111707

 30 33  0  0  0  0  0  0  0  0999 V2000
    7.8592   -0.4125    0.0000 C   0  0  0  0  0  4  0  0  0  0  0  0
    7.1447   -0.0000    0.0000 C   0  0  0  0  0  4  0  0  0  0  0  0
    6.4302   -0.4125    0.0000 O   0  0  0  0  0  2  0  0  0  0  0  0
    5.7158   -0.0000    0.0000 C   0  0  0  0  0  4  0  0  0  0  0  0
    5.7158    0.8250    0.0000 O   0  0  0  0  0  2  0  0  0  0  0  0
    5.0013   -0.4125    0.0000 N   0  0  0  0  0  3  0  0  0  0  0  0
    4.2868   -0.0000    0.0000 C   0  0  0  0  0  4  0  0  0  0  0  0
    4.2868    0.8250    0.0000 C   0  0  0  0  0  4  0  0  0  0  0  0
    3.5724    1.2375    0.0000 C   0  0  0  0  0  4  0  0  0  0  0  0
    2.8579    0.8250    0.0000 C   0  0  0  0  0  4  0  0  0  0  0  0
    2.8579    0.0000    0.0000 C   0  0  0  0  0  4  0  0  0  0  0  0
    3.5724   -0.4125    0.0000 C   0  0  0  0  0  4  0  0  0  0  0  0
    2.1434   -0.4125    0.0000 N   0  0  0  0  0  3  0  0  0  0  0  0
    2.1434   -1.2375    0.0000 C   0  0  0  0  0  4  0  0  0  0  0  0
    2.8579   -1.6500    0.0000 O   0  0  0  0  0  2  0  0  0  0  0  0
    1.4289   -1.6500    0.0000 C   0  0  0  0  0  4  0  0  0  0  0  0
    1.4289   -2.4750    0.0000 C   0  0  0  0  0  4  0  0  0  0  0  0
    0.7145   -2.8875    0.0000 N   0  0  0  0  0  4  0  0  0  0  0  0
    0.7145   -3.7125    0.0000 C   0  0  0  0  0  4  0  0  0  0  0  0
    0.0000   -4.1250    0.0000 C   0  0  0  0  0  4  0  0  0  0  0  0
   -0.7145   -3.7125    0.0000 O   0  0  0  0  0  2  0  0  0  0  0  0
   -0.7145   -2.8875    0.0000 C   0  0  0  0  0  4  0  0  0  0  0  0
    0.0000   -2.4750    0.0000 C   0  0  0  0  0  4  0  0  0  0  0  0
    1.4289   -0.0000    0.0000 C   0  0  0  0  0  4  0  0  0  0  0  0
    0.7145   -0.4125    0.0000 C   0  0  0  0  0  4  0  0  0  0  0  0
   -0.0000    0.0000    0.0000 C   0  0  0  0  0  4  0  0  0  0  0  0
    0.0000    0.8250    0.0000 C   0  0  0  0  0  4  0  0  0  0  0  0
    0.7145    1.2375    0.0000 C   0  0  0  0  0  4  0  0  0  0  0  0
    1.4289    0.8250    0.0000 C   0  0  0  0  0  4  0  0  0  0  0  0
    2.1434    1.2375    0.0000 S   0  0  0  0  0  2  0  0  0  0  0  0
  1  2  1  0  0  0  0 
  2  3  1  0  0  0  0 
  3  4  1  0  0  0  0 
  4  5  2  0  0  0  0 
  4  6  1  0  0  0  0 
  6  7  1  0  0  0  0 
  7  8  2  0  0  0  0 
  8  9  1  0  0  0  0 
  9 10  2  0  0  0  0 
 10 11  1  0  0  0  0 
 11 12  2  0  0  0  0 
  7 12  1  0  0  0  0 
 11 13  1  0  0  0  0 
 13 14  1  0  0  0  0 
 14 15  2  0  0  0  0 
 14 16  1  0  0  0  0 
 16 17  1  0  0  0  0 
 17 18  1  0  0  0  0 
 18 19  1  0  0  0  0 
 19 20  1  0  0  0  0 
 20 21  1  0  0  0  0 
 21 22  1  0  0  0  0 
 22 23  1  0  0  0  0 
 18 23  1  0  0  0  0 
 13 24  1  0  0  0  0 
 24 25  2  0  0  0  0 
 25 26  1  0  0  0  0 
 26 27  2  0  0  0  0 
 27 28  1  0  0  0  0 
 28 29  2  0  0  0  0 
 24 29  1  0  0  0  0 
 29 30  1  0  0  0  0 
 10 30  1  0  0  0  0 
M  CHG  1  18   1
M  END
> <Mol Weight>
427.517

> <Formula>
C22H25N3O4S

> <CdId>
358

> <RCDK_LipinskiFailures>
0

> <source>
FDA

> <name>
Moricizine

> <ABUNDANCE>
95.04% at pH 4.8

> <BLABBER_CHARGE>
1

> <inchi>
1S/C22H25N3O4S/c1-2-29-22(27)23-16-7-8-20-18(15-16)25(17-5-3-4-6-19(17)30-20)21(26)9-10-24-11-13-28-14-12-24/h3-8,15H,2,9-14H2,1H3,(H,23,27)

> <activity>
0

$$$$

  CDK     0331111707

 20 22  0  0  0  0  0  0  0  0999 V2000
    0.0768   -2.3215    0.0000 C   0  0  0  0  0  4  0  0  0  0  0  0
    0.8838   -2.1500    0.0000 C   0  0  0  0  0  4  0  0  0  0  0  0
    1.1387   -1.3654    0.0000 C   0  0  0  0  0  4  0  0  0  0  0  0
    0.6538   -0.6979    0.0000 C   0  0  0  0  0  4  0  0  0  0  0  0
   -0.1712   -0.6979    0.0000 C   0  0  0  0  0  4  0  0  0  0  0  0
    1.1387   -0.0305    0.0000 N   0  0  0  0  0  3  0  0  0  0  0  0
    1.9233   -0.2854    0.0000 C   0  0  0  0  0  4  0  0  0  0  0  0
    2.6378    0.1271    0.0000 C   0  0  0  0  0  4  0  0  0  0  0  0
    3.3523   -0.2854    0.0000 C   0  0  0  0  0  4  0  0  0  0  0  0
    3.3523   -1.1104    0.0000 C   0  0  0  0  0  4  0  0  0  0  0  0
    4.0668   -1.5229    0.0000 C   0  0  0  0  0  4  0  0  0  0  0  0
    4.0668   -2.3479    0.0000 N   0  0  0  0  0  4  0  0  0  0  0  0
    4.7812   -2.7604    0.0000 C   0  0  0  0  0  4  0  0  0  0  0  0
    4.7812   -3.5854    0.0000 C   0  0  0  0  0  4  0  0  0  0  0  0
    4.0668   -3.9979    0.0000 O   0  0  0  0  0  2  0  0  0  0  0  0
    3.3523   -3.5854    0.0000 C   0  0  0  0  0  4  0  0  0  0  0  0
    3.3523   -2.7604    0.0000 C   0  0  0  0  0  4  0  0  0  0  0  0
    2.6378   -1.5229    0.0000 C   0  0  0  0  0  4  0  0  0  0  0  0
    2.6378   -2.3479    0.0000 O   0  0  0  0  0  2  0  0  0  0  0  0
    1.9233   -1.1104    0.0000 C   0  0  0  0  0  4  0  0  0  0  0  0
  1  2  1  0  0  0  0 
  2  3  1  0  0  0  0 
  3  4  2  0  0  0  0 
  4  5  1  0  0  0  0 
  4  6  1  0  0  0  0 
  6  7  1  0  0  0  0 
  7  8  1  0  0  0  0 
  8  9  1  0  0  0  0 
  9 10  1  0  0  0  0 
 10 11  1  0  0  0  0 
 11 12  1  0  0  0  0 
 12 13  1  0  0  0  0 
 13 14  1  0  0  0  0 
 14 15  1  0  0  0  0 
 15 16  1  0  0  0  0 
 16 17  1  0  0  0  0 
 12 17  1  0  0  0  0 
 10 18  1  0  0  0  0 
 18 19  2  0  0  0  0 
 18 20  1  0  0  0  0 
  7 20  2  0  0  0  0 
  3 20  1  0  0  0  0 
M  CHG  1  12   1
M  END
> <Mol Weight>
276.374

> <Formula>
C16H24N2O2

> <CdId>
357

> <RCDK_LipinskiFailures>
0

> <source>
FDA

> <name>
Molindone

> <ABUNDANCE>
99.95% at pH 4.8

> <BLABBER_CHARGE>
1

> <inchi>
1S/C16H24N2O2/c1-3-13-11(2)17-14-5-4-12(16(19)15(13)14)10-18-6-8-20-9-7-18/h12,17H,3-10H2,1-2H3

> <activity>
0

$$$$

  CDK     0331111707

 19 20  0  0  0  0  0  0  0  0999 V2000
   -2.1434   -1.2375    0.0000 N   0  0  0  0  0  3  0  0  0  0  0  0
   -1.4289   -1.6500    0.0000 C   0  0  0  0  0  4  0  0  0  0  0  0
   -1.4289   -2.4750    0.0000 O   0  0  0  0  0  2  0  0  0  0  0  0
   -0.7145   -1.2375    0.0000 C   0  0  0  0  0  4  0  0  0  0  0  0
    0.0000   -1.6500    0.0000 S   0  0  0  0  0  4  0  0  0  0  0  0
    0.0000   -2.4750    0.0000 O   0  0  0  0  0  2  0  0  0  0  0  0
    0.7145   -1.2375    0.0000 C   0  0  0  0  0  4  0  0  0  0  0  0
    1.4289   -1.6500    0.0000 C   0  0  0  0  0  4  0  0  0  0  0  0
    2.1434   -1.2375    0.0000 C   0  0  0  0  0  4  0  0  0  0  0  0
    2.8579   -1.6500    0.0000 C   0  0  0  0  0  4  0  0  0  0  0  0
    2.8579   -2.4750    0.0000 C   0  0  0  0  0  4  0  0  0  0  0  0
    2.1434   -2.8875    0.0000 C   0  0  0  0  0  4  0  0  0  0  0  0
    1.4289   -2.4750    0.0000 C   0  0  0  0  0  4  0  0  0  0  0  0
    0.7145   -0.4125    0.0000 C   0  0  0  0  0  4  0  0  0  0  0  0
    0.0000    0.0000    0.0000 C   0  0  0  0  0  4  0  0  0  0  0  0
    0.0000    0.8250    0.0000 C   0  0  0  0  0  4  0  0  0  0  0  0
    0.7145    1.2375    0.0000 C   0  0  0  0  0  4  0  0  0  0  0  0
    1.4289    0.8250    0.0000 C   0  0  0  0  0  4  0  0  0  0  0  0
    1.4289    0.0000    0.0000 C   0  0  0  0  0  4  0  0  0  0  0  0
  1  2  1  0  0  0  0 
  2  3  2  0  0  0  0 
  2  4  1  0  0  0  0 
  4  5  1  0  0  0  0 
  5  6  2  0  0  0  0 
  5  7  1  0  0  0  0 
  7  8  1  0  0  0  0 
  8  9  2  0  0  0  0 
  9 10  1  0  0  0  0 
 10 11  2  0  0  0  0 
 11 12  1  0  0  0  0 
 12 13  2  0  0  0  0 
  8 13  1  0  0  0  0 
  7 14  1  0  0  0  0 
 14 15  2  0  0  0  0 
 15 16  1  0  0  0  0 
 16 17  2  0  0  0  0 
 17 18  1  0  0  0  0 
 18 19  2  0  0  0  0 
 14 19  1  0  0  0  0 
M  END
> <Mol Weight>
273.35

> <Formula>
C15H15NO2S

> <CdId>
355

> <RCDK_LipinskiFailures>
0

> <source>
FDA

> <name>
Modafinil

> <ABUNDANCE>
100% at pH 4.8

> <BLABBER_CHARGE>


> <inchi>
1S/C15H15NO2S/c16-14(17)11-19(18)15(12-7-3-1-4-8-12)13-9-5-2-6-10-13/h1-10,15H,11H2,(H2,16,17)

> <activity>
0

$$$$

  CDK     0331111707

 23 26  0  0  0  0  0  0  0  0999 V2000
    1.7654   -2.3835    0.0000 C   0  0  0  0  0  4  0  0  0  0  0  0
    1.4456   -1.6230    0.0000 C   0  0  0  0  0  4  0  0  0  0  0  0
    0.6423   -1.4348    0.0000 N   0  0  0  0  0  4  0  0  0  0  0  0
    0.5732   -0.6127    0.0000 C   0  0  0  0  0  4  0  0  0  0  0  0
    1.3337   -0.2928    0.0000 C   0  0  0  0  0  4  0  0  0  0  0  0
    1.4857    0.5180    0.0000 C   0  0  0  0  0  4  0  0  0  0  0  0
    2.2145    0.9047    0.0000 N   0  0  0  0  0  3  0  0  0  0  0  0
    2.9712    0.5760    0.0000 C   0  0  0  0  0  4  0  0  0  0  0  0
    3.5956    1.1152    0.0000 C   0  0  0  0  0  4  0  0  0  0  0  0
    3.4409    1.9256    0.0000 C   0  0  0  0  0  4  0  0  0  0  0  0
    4.0654    2.4647    0.0000 C   0  0  0  0  0  4  0  0  0  0  0  0
    4.8445    2.1935    0.0000 C   0  0  0  0  0  4  0  0  0  0  0  0
    4.9992    1.3832    0.0000 C   0  0  0  0  0  4  0  0  0  0  0  0
    4.3748    0.8440    0.0000 C   0  0  0  0  0  4  0  0  0  0  0  0
    4.5295    0.0336    0.0000 F   0  0  0  0  0  1  0  0  0  0  0  0
    3.1860   -0.2205    0.0000 C   0  0  0  0  0  4  0  0  0  0  0  0
    4.0060   -0.3115    0.0000 C   0  0  0  0  0  4  0  0  0  0  0  0
    4.3371   -1.0671    0.0000 C   0  0  0  0  0  4  0  0  0  0  0  0
    3.8483   -1.7317    0.0000 C   0  0  0  0  0  4  0  0  0  0  0  0
    3.0283   -1.6407    0.0000 C   0  0  0  0  0  4  0  0  0  0  0  0
    2.6972   -0.8851    0.0000 C   0  0  0  0  0  4  0  0  0  0  0  0
    1.8728   -0.9173    0.0000 N   0  0  0  0  0  3  0  0  0  0  0  0
    5.1571   -1.1582    0.0000 Cl  0  0  0  0  0  1  0  0  0  0  0  0
  1  2  1  0  0  0  0 
  2  3  2  0  0  0  0 
  3  4  1  0  0  0  0 
  4  5  2  0  0  0  0 
  5  6  1  0  0  0  0 
  6  7  1  0  0  0  0 
  7  8  2  0  0  0  0 
  8  9  1  0  0  0  0 
  9 10  2  0  0  0  0 
 10 11  1  0  0  0  0 
 11 12  2  0  0  0  0 
 12 13  1  0  0  0  0 
 13 14  2  0  0  0  0 
  9 14  1  0  0  0  0 
 14 15  1  0  0  0  0 
  8 16  1  0  0  0  0 
 16 17  2  0  0  0  0 
 17 18  1  0  0  0  0 
 18 19  2  0  0  0  0 
 19 20  1  0  0  0  0 
 20 21  2  0  0  0  0 
 16 21  1  0  0  0  0 
 21 22  1  0  0  0  0 
  2 22  1  0  0  0  0 
  5 22  1  0  0  0  0 
 18 23  1  0  0  0  0 
M  CHG  1   3   1
M  END
> <Mol Weight>
325.767

> <Formula>
C18H13ClFN3

> <CdId>
353

> <RCDK_LipinskiFailures>
0

> <source>
FDA

> <name>
Midazolam

> <ABUNDANCE>
90.73% at pH 4.8

> <BLABBER_CHARGE>
1

> <inchi>
1S/C18H13ClFN3/c1-11-21-9-13-10-22-18(14-4-2-3-5-16(14)20)15-8-12(19)6-7-17(15)23(11)13/h2-9H,10H2,1H3

> <activity>
0

$$$$

  CDK     0331111707

 17 18  0  0  0  0  0  0  0  0999 V2000
    3.6829   -0.8250    0.0000 C   0  0  0  0  0  4  0  0  0  0  0  0
    2.8579   -0.8250    0.0000 C   0  0  0  0  0  4  0  0  0  0  0  0
    2.0329   -0.8250    0.0000 C   0  0  0  0  0  4  0  0  0  0  0  0
    2.8579   -1.6500    0.0000 C   0  0  0  0  0  4  0  0  0  0  0  0
    3.5724   -2.0625    0.0000 C   0  0  0  0  0  4  0  0  0  0  0  0
    3.5724   -2.8875    0.0000 C   0  0  0  0  0  4  0  0  0  0  0  0
    2.8579   -3.3000    0.0000 C   0  0  0  0  0  4  0  0  0  0  0  0
    2.1434   -2.8875    0.0000 N   0  0  0  0  0  4  0  0  0  0  0  0
    2.1434   -2.0625    0.0000 C   0  0  0  0  0  4  0  0  0  0  0  0
    2.8579    0.0000    0.0000 C   0  0  0  0  0  4  0  0  0  0  0  0
    2.1434    0.4125    0.0000 O   0  0  0  0  0  2  0  0  0  0  0  0
    3.5724    0.4125    0.0000 C   0  0  0  0  0  4  0  0  0  0  0  0
    3.5724    1.2375    0.0000 C   0  0  0  0  0  4  0  0  0  0  0  0
    4.2868    1.6500    0.0000 C   0  0  0  0  0  4  0  0  0  0  0  0
    5.0013    1.2375    0.0000 C   0  0  0  0  0  4  0  0  0  0  0  0
    5.0013    0.4125    0.0000 N   0  0  0  0  0  3  0  0  0  0  0  0
    4.2868    0.0000    0.0000 C   0  0  0  0  0  4  0  0  0  0  0  0
  1  2  1  0  0  0  0 
  2  3  1  0  0  0  0 
  2  4  1  0  0  0  0 
  4  5  2  0  0  0  0 
  5  6  1  0  0  0  0 
  6  7  2  0  0  0  0 
  7  8  1  0  0  0  0 
  8  9  2  0  0  0  0 
  4  9  1  0  0  0  0 
  2 10  1  0  0  0  0 
 10 11  2  0  0  0  0 
 10 12  1  0  0  0  0 
 12 13  2  0  0  0  0 
 13 14  1  0  0  0  0 
 14 15  2  0  0  0  0 
 15 16  1  0  0  0  0 
 16 17  2  0  0  0  0 
 12 17  1  0  0  0  0 
M  CHG  1   8   1
M  END
> <Mol Weight>
226.2738

> <Formula>
C14H14N2O

> <CdId>
350

> <RCDK_LipinskiFailures>
0

> <source>
FDA

> <name>
Metyrapone

> <ABUNDANCE>
75.47% at pH 4.8

> <BLABBER_CHARGE>
1

> <inchi>
1S/C14H14N2O/c1-14(2,12-6-4-8-16-10-12)13(17)11-5-3-7-15-9-11/h3-10H,1-2H3

> <activity>
0

$$$$

  CDK     0331111707

 12 12  0  0  0  0  0  0  0  0999 V2000
    2.0198    0.8843    0.0000 C   0  0  0  0  0  4  0  0  0  0  0  0
    1.2352    0.6294    0.0000 C   0  0  0  0  0  4  0  0  0  0  0  0
    0.9803   -0.1553    0.0000 N   0  0  0  0  0  3  0  0  0  0  0  0
    0.1553   -0.1553    0.0000 C   0  0  0  0  0  4  0  0  0  0  0  0
   -0.0997    0.6294    0.0000 C   0  0  0  0  0  4  0  0  0  0  0  0
   -0.8843    0.8843    0.0000 N   0  0  0  0  0  4  0  0  0  0  0  0
   -1.4974    0.3323    0.0000 O   0  0  0  0  0  1  0  0  0  0  0  0
   -1.0558    1.6913    0.0000 O   0  0  0  0  0  2  0  0  0  0  0  0
    0.5678    1.1143    0.0000 N   0  0  0  0  0  3  0  0  0  0  0  0
    0.5678    1.9393    0.0000 C   0  0  0  0  0  4  0  0  0  0  0  0
    1.2822    2.3518    0.0000 C   0  0  0  0  0  4  0  0  0  0  0  0
    1.2822    3.1768    0.0000 O   0  0  0  0  0  2  0  0  0  0  0  0
  1  2  1  0  0  0  0 
  2  3  2  0  0  0  0 
  3  4  1  0  0  0  0 
  4  5  2  0  0  0  0 
  5  6  1  0  0  0  0 
  6  7  1  0  0  0  0 
  6  8  2  0  0  0  0 
  5  9  1  0  0  0  0 
  2  9  1  0  0  0  0 
  9 10  1  0  0  0  0 
 10 11  1  0  0  0  0 
 11 12  1  0  0  0  0 
M  CHG  1   6   1
M  CHG  1   7  -1
M  END
> <Mol Weight>
171.154

> <Formula>
C6H9N3O3

> <CdId>
349

> <RCDK_LipinskiFailures>
0

> <source>
FDA

> <name>
Metronidazole

> <ABUNDANCE>
99.45% at pH 4.8

> <BLABBER_CHARGE>
0

> <inchi>
1S/C6H9N3O3/c1-5-7-4-6(9(11)12)8(5)2-3-10/h4,10H,2-3H2,1H3

> <activity>
0

$$$$

  CDK     0331111707

 21 21  0  0  0  0  0  0  0  0999 V2000
    3.5724    1.2375    0.0000 C   0  0  0  0  0  4  0  0  0  0  0  0
    2.8579    0.8250    0.0000 C   0  0  0  0  0  4  0  0  0  0  0  0
    2.8579   -0.0000    0.0000 O   0  0  0  0  0  2  0  0  0  0  0  0
    2.1434    1.2375    0.0000 N   0  0  0  0  0  3  0  0  0  0  0  0
    1.4289    0.8250    0.0000 C   0  0  0  0  0  4  0  0  0  0  0  0
    1.4289   -0.0000    0.0000 C   0  0  0  0  0  4  0  0  0  0  0  0
    0.7145   -0.4125    0.0000 C   0  0  0  0  0  4  0  0  0  0  0  0
    0.7145   -1.2375    0.0000 C   0  0  0  0  0  4  0  0  0  0  0  0
   -0.0000   -1.6500    0.0000 O   0  0  0  0  0  2  0  0  0  0  0  0
    1.4289   -1.6500    0.0000 O   0  0  0  0  0  1  0  0  0  0  0  0
    0.0000    0.0000    0.0000 C   0  0  0  0  0  4  0  0  0  0  0  0
    0.0000    0.8250    0.0000 C   0  0  0  0  0  4  0  0  0  0  0  0
    0.7145    1.2375    0.0000 C   0  0  0  0  0  4  0  0  0  0  0  0
    0.7145    2.0625    0.0000 I   0  0  0  0  0  1  0  0  0  0  0  0
   -0.7145    1.2375    0.0000 N   0  0  0  0  0  3  0  0  0  0  0  0
   -1.4289    0.8250    0.0000 C   0  0  0  0  0  4  0  0  0  0  0  0
   -0.7145    2.0625    0.0000 C   0  0  0  0  0  4  0  0  0  0  0  0
   -1.4289    2.4750    0.0000 C   0  0  0  0  0  4  0  0  0  0  0  0
    0.0000    2.4750    0.0000 O   0  0  0  0  0  2  0  0  0  0  0  0
   -0.7145   -0.4125    0.0000 I   0  0  0  0  0  1  0  0  0  0  0  0
    2.1434   -0.4125    0.0000 I   0  0  0  0  0  1  0  0  0  0  0  0
  1  2  1  0  0  0  0 
  2  3  2  0  0  0  0 
  2  4  1  0  0  0  0 
  4  5  1  0  0  0  0 
  5  6  2  0  0  0  0 
  6  7  1  0  0  0  0 
  7  8  1  0  0  0  0 
  8  9  2  0  0  0  0 
  8 10  1  0  0  0  0 
  7 11  2  0  0  0  0 
 11 12  1  0  0  0  0 
 12 13  2  0  0  0  0 
  5 13  1  0  0  0  0 
 13 14  1  0  0  0  0 
 12 15  1  0  0  0  0 
 15 16  1  0  0  0  0 
 15 17  1  0  0  0  0 
 17 18  1  0  0  0  0 
 17 19  2  0  0  0  0 
 11 20  1  0  0  0  0 
  6 21  1  0  0  0  0 
M  CHG  1  10  -1
M  END
> <Mol Weight>
627.9402

> <Formula>
C12H11I3N2O4

> <CdId>
348

> <RCDK_LipinskiFailures>
0

> <source>
FDA

> <name>
Metrizoic acid

> <ABUNDANCE>
96.8% at pH 4.8

> <BLABBER_CHARGE>
-1

> <inchi>
1S/C12H11I3N2O4/c1-4(18)16-10-7(13)6(12(20)21)8(14)11(9(10)15)17(3)5(2)19/h1-3H3,(H,16,18)(H,20,21)

> <activity>
0

$$$$

  CDK     0331111707

 19 19  0  0  0  0  0  0  0  0999 V2000
   -1.4289   -2.4750    0.0000 C   0  0  0  0  0  4  0  0  0  0  0  0
   -1.4289   -1.6500    0.0000 O   0  0  0  0  0  2  0  0  0  0  0  0
   -0.7145   -1.2375    0.0000 C   0  0  0  0  0  4  0  0  0  0  0  0
   -0.7145   -0.4125    0.0000 C   0  0  0  0  0  4  0  0  0  0  0  0
   -0.0000    0.0000    0.0000 C   0  0  0  0  0  4  0  0  0  0  0  0
   -0.0000    0.8250    0.0000 C   0  0  0  0  0  4  0  0  0  0  0  0
    0.7145    1.2375    0.0000 C   0  0  0  0  0  4  0  0  0  0  0  0
    1.4289    0.8250    0.0000 C   0  0  0  0  0  4  0  0  0  0  0  0
    1.4289    0.0000    0.0000 C   0  0  0  0  0  4  0  0  0  0  0  0
    0.7145   -0.4125    0.0000 C   0  0  0  0  0  4  0  0  0  0  0  0
    2.1434    1.2375    0.0000 O   0  0  0  0  0  2  0  0  0  0  0  0
    2.8579    0.8250    0.0000 C   0  0  0  0  0  4  0  0  0  0  0  0
    3.5724    1.2375    0.0000 C   0  0  0  0  0  4  0  0  0  0  0  0
    3.5724    2.0625    0.0000 O   0  0  0  0  0  2  0  0  0  0  0  0
    4.2868    0.8250    0.0000 C   0  0  0  0  0  4  0  0  0  0  0  0
    5.0013    1.2375    0.0000 N   0  0  0  0  0  4  0  0  0  0  0  0
    5.7158    0.8250    0.0000 C   0  0  0  0  0  4  0  0  0  0  0  0
    6.4302    1.2375    0.0000 C   0  0  0  0  0  4  0  0  0  0  0  0
    5.7158    0.0000    0.0000 C   0  0  0  0  0  4  0  0  0  0  0  0
  1  2  1  0  0  0  0 
  2  3  1  0  0  0  0 
  3  4  1  0  0  0  0 
  4  5  1  0  0  0  0 
  5  6  2  0  0  0  0 
  6  7  1  0  0  0  0 
  7  8  2  0  0  0  0 
  8  9  1  0  0  0  0 
  9 10  2  0  0  0  0 
  5 10  1  0  0  0  0 
  8 11  1  0  0  0  0 
 11 12  1  0  0  0  0 
 12 13  1  0  0  0  0 
 13 14  1  0  0  0  0 
 13 15  1  0  0  0  0 
 15 16  1  0  0  0  0 
 16 17  1  0  0  0  0 
 17 18  1  0  0  0  0 
 17 19  1  0  0  0  0 
M  CHG  1  16   1
M  END
> <Mol Weight>
267.3639

> <Formula>
C15H25NO3

> <CdId>
347

> <RCDK_LipinskiFailures>
0

> <source>
FDA

> <name>
Metoprolol

> <ABUNDANCE>
100% at pH 4.8

> <BLABBER_CHARGE>
1

> <inchi>
1S/C15H25NO3/c1-12(2)16-10-14(17)11-19-15-6-4-13(5-7-15)8-9-18-3/h4-7,12,14,16-17H,8-11H2,1-3H3

> <activity>
0

$$$$

  CDK     0331111707

 13 13  0  0  0  0  0  0  0  0999 V2000
    2.0572    1.7262    0.0000 C   0  0  0  0  0  4  0  0  0  0  0  0
    1.2448    1.8695    0.0000 C   0  0  0  0  0  4  0  0  0  0  0  0
    0.7145    1.2375    0.0000 C   0  0  0  0  0  4  0  0  0  0  0  0
    0.1842    1.8695    0.0000 C   0  0  0  0  0  4  0  0  0  0  0  0
   -0.6283    1.7262    0.0000 C   0  0  0  0  0  4  0  0  0  0  0  0
    1.4289    0.8250    0.0000 C   0  0  0  0  0  4  0  0  0  0  0  0
    2.1434    1.2375    0.0000 O   0  0  0  0  0  2  0  0  0  0  0  0
    1.4289    0.0000    0.0000 N   0  0  0  0  0  3  0  0  0  0  0  0
    0.7145   -0.4125    0.0000 C   0  0  0  0  0  4  0  0  0  0  0  0
    0.0000   -0.0000    0.0000 C   0  0  0  0  0  4  0  0  0  0  0  0
   -0.7145   -0.4125    0.0000 C   0  0  0  0  0  4  0  0  0  0  0  0
   -0.0000    0.8250    0.0000 C   0  0  0  0  0  4  0  0  0  0  0  0
   -0.7145    1.2375    0.0000 O   0  0  0  0  0  2  0  0  0  0  0  0
  1  2  1  0  0  0  0 
  2  3  1  0  0  0  0 
  3  4  1  0  0  0  0 
  4  5  1  0  0  0  0 
  3  6  1  0  0  0  0 
  6  7  2  0  0  0  0 
  6  8  1  0  0  0  0 
  8  9  1  0  0  0  0 
  9 10  1  0  0  0  0 
 10 11  1  0  0  0  0 
 10 12  1  0  0  0  0 
  3 12  1  0  0  0  0 
 12 13  2  0  0  0  0 
M  END
> <Mol Weight>
183.2475

> <Formula>
C10H17NO2

> <CdId>
346

> <RCDK_LipinskiFailures>
0

> <source>
FDA

> <name>
Methyprylon

> <ABUNDANCE>
100% at pH 4.8

> <BLABBER_CHARGE>


> <inchi>
1S/C10H17NO2/c1-4-10(5-2)8(12)7(3)6-11-9(10)13/h7H,4-6H2,1-3H3,(H,11,13)

> <activity>
0

$$$$

  CDK     0331111707

 30 33  0  0  0  0  0  0  0  0999 V2000
   -0.4317   -1.6637    0.0000 C   0  0  0  0  0  4  0  0  0  0  0  0
    0.3804   -1.5185    0.0000 C   0  0  0  0  0  4  0  0  0  0  0  0
    0.6607   -0.7426    0.0000 O   0  0  0  0  0  2  0  0  0  0  0  0
    0.9122   -2.1492    0.0000 O   0  0  0  0  0  2  0  0  0  0  0  0
    1.7243   -2.0040    0.0000 C   0  0  0  0  0  4  0  0  0  0  0  0
    2.2561   -2.6347    0.0000 C   0  0  0  0  0  4  0  0  0  0  0  0
    1.9758   -3.4106    0.0000 O   0  0  0  0  0  2  0  0  0  0  0  0
    3.0683   -2.4895    0.0000 C   0  0  0  0  0  4  0  0  0  0  0  0
    3.1278   -3.3123    0.0000 O   0  0  0  0  0  2  0  0  0  0  0  0
    2.8390   -1.6970    0.0000 C   0  0  0  0  0  4  0  0  0  0  0  0
    3.5218   -1.2340    0.0000 C   0  0  0  0  0  4  0  0  0  0  0  0
    4.1731   -1.7404    0.0000 C   0  0  0  0  0  4  0  0  0  0  0  0
    4.9853   -1.5952    0.0000 C   0  0  0  0  0  4  0  0  0  0  0  0
    5.2655   -0.8192    0.0000 C   0  0  0  0  0  4  0  0  0  0  0  0
    6.0777   -0.6740    0.0000 C   0  0  0  0  0  4  0  0  0  0  0  0
    6.3580    0.1019    0.0000 C   0  0  0  0  0  4  0  0  0  0  0  0
    6.6095   -1.3047    0.0000 C   0  0  0  0  0  4  0  0  0  0  0  0
    7.4216   -1.1595    0.0000 C   0  0  0  0  0  4  0  0  0  0  0  0
    7.9534   -1.7902    0.0000 C   0  0  0  0  0  4  0  0  0  0  0  0
    8.7655   -1.6450    0.0000 O   0  0  0  0  0  2  0  0  0  0  0  0
    7.6731   -2.5662    0.0000 C   0  0  0  0  0  4  0  0  0  0  0  0
    6.8610   -2.7114    0.0000 C   0  0  0  0  0  4  0  0  0  0  0  0
    6.3292   -2.0807    0.0000 C   0  0  0  0  0  4  0  0  0  0  0  0
    6.0489   -2.8566    0.0000 C   0  0  0  0  0  4  0  0  0  0  0  0
    5.5171   -2.2259    0.0000 C   0  0  0  0  0  4  0  0  0  0  0  0
    5.2368   -3.0018    0.0000 C   0  0  0  0  0  4  0  0  0  0  0  0
    5.7686   -3.6325    0.0000 O   0  0  0  0  0  2  0  0  0  0  0  0
    4.4247   -3.1470    0.0000 C   0  0  0  0  0  4  0  0  0  0  0  0
    3.8928   -2.5163    0.0000 C   0  0  0  0  0  4  0  0  0  0  0  0
    3.5330   -3.2587    0.0000 C   0  0  0  0  0  4  0  0  0  0  0  0
  1  2  1  0  0  0  0 
  2  3  2  0  0  0  0 
  2  4  1  0  0  0  0 
  4  5  1  0  0  0  0 
  5  6  1  0  0  0  0 
  6  7  2  0  0  0  0 
  6  8  1  0  0  0  0 
  8  9  1  0  0  0  0 
  8 10  1  0  0  0  0 
 10 11  1  0  0  0  0 
 11 12  1  0  0  0  0 
 12 13  1  0  0  0  0 
 13 14  1  0  0  0  0 
 14 15  1  0  0  0  0 
 15 16  1  0  0  0  0 
 15 17  1  0  0  0  0 
 17 18  2  0  0  0  0 
 18 19  1  0  0  0  0 
 19 20  2  0  0  0  0 
 19 21  1  0  0  0  0 
 21 22  2  0  0  0  0 
 22 23  1  0  0  0  0 
 17 23  1  0  0  0  0 
 23 24  1  0  0  0  0 
 23 25  1  0  0  0  0 
 13 25  1  0  0  0  0 
 25 26  1  0  0  0  0 
 26 27  1  0  0  0  0 
 26 28  1  0  0  0  0 
 28 29  1  0  0  0  0 
 12 29  1  0  0  0  0 
  8 29  1  0  0  0  0 
 29 30  1  0  0  0  0 
M  END
> <Mol Weight>
416.5073

> <Formula>
C24H32O6

> <CdId>
345

> <RCDK_LipinskiFailures>
0

> <source>
FDA

> <name>
Methylprednisolone acetate

> <ABUNDANCE>
99.98% at pH 4.8

> <BLABBER_CHARGE>


> <inchi>
1S/C24H32O6/c1-13-9-16-17-6-8-24(29,20(28)12-30-14(2)25)23(17,4)11-19(27)21(16)22(3)7-5-15(26)10-18(13)22/h5,7,10,13,16-17,19,21,27,29H,6,8-9,11-12H2,1-4H3

> <activity>
0

$$$$

  CDK     0331111707

 11 11  0  0  0  0  0  0  0  0999 V2000
    1.4289   -2.4750    0.0000 C   0  0  0  0  0  4  0  0  0  0  0  0
    1.4289   -1.6500    0.0000 O   0  0  0  0  0  2  0  0  0  0  0  0
    0.7145   -1.2375    0.0000 C   0  0  0  0  0  4  0  0  0  0  0  0
    0.0000   -1.6500    0.0000 O   0  0  0  0  0  2  0  0  0  0  0  0
    0.7145   -0.4125    0.0000 C   0  0  0  0  0  4  0  0  0  0  0  0
   -0.0000    0.0000    0.0000 C   0  0  0  0  0  4  0  0  0  0  0  0
    0.0000    0.8250    0.0000 C   0  0  0  0  0  4  0  0  0  0  0  0
    0.7145    1.2375    0.0000 C   0  0  0  0  0  4  0  0  0  0  0  0
    0.7145    2.0625    0.0000 O   0  0  0  0  0  2  0  0  0  0  0  0
    1.4289    0.8250    0.0000 C   0  0  0  0  0  4  0  0  0  0  0  0
    1.4289    0.0000    0.0000 C   0  0  0  0  0  4  0  0  0  0  0  0
  1  2  1  0  0  0  0 
  2  3  1  0  0  0  0 
  3  4  2  0  0  0  0 
  3  5  1  0  0  0  0 
  5  6  2  0  0  0  0 
  6  7  1  0  0  0  0 
  7  8  2  0  0  0  0 
  8  9  1  0  0  0  0 
  8 10  1  0  0  0  0 
 10 11  2  0  0  0  0 
  5 11  1  0  0  0  0 
M  END
> <Mol Weight>
152.1473

> <Formula>
C8H8O3

> <CdId>
344

> <RCDK_LipinskiFailures>
0

> <source>
FDA

> <name>
Methylparaben

> <ABUNDANCE>
99.97% at pH 4.8

> <BLABBER_CHARGE>


> <inchi>
1S/C8H8O3/c1-11-8(10)6-2-4-7(9)5-3-6/h2-5,9H,1H3

> <activity>
0

$$$$

  CDK     0331111707

 15 15  0  0  0  0  0  0  0  0999 V2000
    1.3184   -1.2375    0.0000 C   0  0  0  0  0  4  0  0  0  0  0  0
    2.1434   -1.2375    0.0000 C   0  0  0  0  0  4  0  0  0  0  0  0
    2.9684   -1.2375    0.0000 N   0  0  0  0  0  4  0  0  0  0  0  0
    2.1434   -0.4125    0.0000 C   0  0  0  0  0  4  0  0  0  0  0  0
    1.4289   -0.0000    0.0000 C   0  0  0  0  0  4  0  0  0  0  0  0
    0.7145   -0.4125    0.0000 C   0  0  0  0  0  4  0  0  0  0  0  0
    0.0000   -0.0000    0.0000 C   0  0  0  0  0  4  0  0  0  0  0  0
    0.0000    0.8250    0.0000 C   0  0  0  0  0  4  0  0  0  0  0  0
   -0.7145    1.2375    0.0000 O   0  0  0  0  0  2  0  0  0  0  0  0
    0.7145    1.2375    0.0000 C   0  0  0  0  0  4  0  0  0  0  0  0
    0.7145    2.0625    0.0000 O   0  0  0  0  0  2  0  0  0  0  0  0
    1.4289    0.8250    0.0000 C   0  0  0  0  0  4  0  0  0  0  0  0
    2.1434   -2.0625    0.0000 C   0  0  0  0  0  4  0  0  0  0  0  0
    2.8579   -2.4750    0.0000 O   0  0  0  0  0  2  0  0  0  0  0  0
    1.4289   -2.4750    0.0000 O   0  0  0  0  0  1  0  0  0  0  0  0
  1  2  1  0  0  0  0 
  2  3  1  0  0  0  0 
  2  4  1  0  0  0  0 
  4  5  1  0  0  0  0 
  5  6  2  0  0  0  0 
  6  7  1  0  0  0  0 
  7  8  2  0  0  0  0 
  8  9  1  0  0  0  0 
  8 10  1  0  0  0  0 
 10 11  1  0  0  0  0 
 10 12  2  0  0  0  0 
  5 12  1  0  0  0  0 
  2 13  1  0  0  0  0 
 13 14  2  0  0  0  0 
 13 15  1  0  0  0  0 
M  CHG  1   3   1
M  CHG  1  15  -1
M  END
> <Mol Weight>
211.2145

> <Formula>
C10H13NO4

> <CdId>
343

> <RCDK_LipinskiFailures>
0

> <source>
BYLER

> <name>
methyldopa

> <ABUNDANCE>
99.64% at pH 4.8

> <BLABBER_CHARGE>
0

> <inchi>
1S/C10H13NO4/c1-10(11,9(14)15)5-6-2-3-7(12)8(13)4-6/h2-4,12-13H,5,11H2,1H3,(H,14,15)

> <activity>
0

$$$$

  CDK     0331111707

 17 17  0  0  0  0  0  0  0  0999 V2000
   -0.7145   -3.7125    0.0000 C   0  0  0  0  0  4  0  0  0  0  0  0
   -0.7145   -2.8875    0.0000 O   0  0  0  0  0  2  0  0  0  0  0  0
   -1.4289   -2.4750    0.0000 C   0  0  0  0  0  4  0  0  0  0  0  0
   -2.1434   -2.8875    0.0000 C   0  0  0  0  0  4  0  0  0  0  0  0
   -2.8579   -2.4750    0.0000 C   0  0  0  0  0  4  0  0  0  0  0  0
   -2.8579   -1.6500    0.0000 C   0  0  0  0  0  4  0  0  0  0  0  0
   -2.1434   -1.2375    0.0000 C   0  0  0  0  0  4  0  0  0  0  0  0
   -1.4289   -1.6500    0.0000 C   0  0  0  0  0  4  0  0  0  0  0  0
   -0.7145   -1.2375    0.0000 O   0  0  0  0  0  2  0  0  0  0  0  0
    0.0000   -1.6500    0.0000 C   0  0  0  0  0  4  0  0  0  0  0  0
    0.7145   -1.2375    0.0000 C   0  0  0  0  0  4  0  0  0  0  0  0
    0.7145   -0.4125    0.0000 O   0  0  0  0  0  2  0  0  0  0  0  0
    1.4289   -1.6500    0.0000 C   0  0  0  0  0  4  0  0  0  0  0  0
    2.1434   -1.2375    0.0000 O   0  0  0  0  0  2  0  0  0  0  0  0
    2.8579   -1.6500    0.0000 C   0  0  0  0  0  4  0  0  0  0  0  0
    3.5724   -1.2375    0.0000 N   0  0  0  0  0  3  0  0  0  0  0  0
    2.8579   -2.4750    0.0000 O   0  0  0  0  0  2  0  0  0  0  0  0
  1  2  1  0  0  0  0 
  2  3  1  0  0  0  0 
  3  4  2  0  0  0  0 
  4  5  1  0  0  0  0 
  5  6  2  0  0  0  0 
  6  7  1  0  0  0  0 
  7  8  2  0  0  0  0 
  3  8  1  0  0  0  0 
  8  9  1  0  0  0  0 
  9 10  1  0  0  0  0 
 10 11  1  0  0  0  0 
 11 12  1  0  0  0  0 
 11 13  1  0  0  0  0 
 13 14  1  0  0  0  0 
 14 15  1  0  0  0  0 
 15 16  1  0  0  0  0 
 15 17  2  0  0  0  0 
M  END
> <Mol Weight>
241.2405

> <Formula>
C11H15NO5

> <CdId>
340

> <RCDK_LipinskiFailures>
0

> <source>
FDA

> <name>
Methocarbamol

> <ABUNDANCE>
100% at pH 4.8

> <BLABBER_CHARGE>


> <inchi>
1S/C11H15NO5/c1-15-9-4-2-3-5-10(9)16-6-8(13)7-17-11(12)14/h2-5,8,13H,6-7H2,1H3,(H2,12,14)

> <activity>
0

$$$$

  CDK     0331111707

 18 19  0  0  0  0  0  0  0  0999 V2000
    2.1434   -2.0625    0.0000 C   0  0  0  0  0  4  0  0  0  0  0  0
    2.8579   -1.6500    0.0000 N   0  0  0  0  0  4  0  0  0  0  0  0
    2.8579   -0.8250    0.0000 C   0  0  0  0  0  4  0  0  0  0  0  0
    3.5724   -2.0625    0.0000 C   0  0  0  0  0  4  0  0  0  0  0  0
    4.2868   -1.6500    0.0000 C   0  0  0  0  0  4  0  0  0  0  0  0
    5.0013   -2.0625    0.0000 N   0  0  0  0  0  3  0  0  0  0  0  0
    5.7158   -1.6500    0.0000 C   0  0  0  0  0  4  0  0  0  0  0  0
    6.4302   -2.0625    0.0000 C   0  0  0  0  0  4  0  0  0  0  0  0
    7.1839   -1.7269    0.0000 C   0  0  0  0  0  4  0  0  0  0  0  0
    7.7359   -2.3400    0.0000 C   0  0  0  0  0  4  0  0  0  0  0  0
    7.3234   -3.0545    0.0000 C   0  0  0  0  0  4  0  0  0  0  0  0
    6.5165   -2.8830    0.0000 S   0  0  0  0  0  2  0  0  0  0  0  0
    5.0013   -2.8875    0.0000 C   0  0  0  0  0  4  0  0  0  0  0  0
    5.7158   -3.3000    0.0000 C   0  0  0  0  0  4  0  0  0  0  0  0
    5.7158   -4.1250    0.0000 C   0  0  0  0  0  4  0  0  0  0  0  0
    5.0013   -4.5375    0.0000 C   0  0  0  0  0  4  0  0  0  0  0  0
    4.2868   -4.1250    0.0000 C   0  0  0  0  0  4  0  0  0  0  0  0
    4.2868   -3.3000    0.0000 N   0  0  0  0  0  4  0  0  0  0  0  0
  1  2  1  0  0  0  0 
  2  3  1  0  0  0  0 
  2  4  1  0  0  0  0 
  4  5  1  0  0  0  0 
  5  6  1  0  0  0  0 
  6  7  1  0  0  0  0 
  7  8  1  0  0  0  0 
  8  9  2  0  0  0  0 
  9 10  1  0  0  0  0 
 10 11  2  0  0  0  0 
 11 12  1  0  0  0  0 
  8 12  1  0  0  0  0 
  6 13  1  0  0  0  0 
 13 14  2  0  0  0  0 
 14 15  1  0  0  0  0 
 15 16  2  0  0  0  0 
 16 17  1  0  0  0  0 
 17 18  2  0  0  0  0 
 13 18  1  0  0  0  0 
M  CHG  1   2   1
M  CHG  1  18   1
M  END
> <Mol Weight>
261.386

> <Formula>
C14H19N3S

> <CdId>
339

> <RCDK_LipinskiFailures>
0

> <source>
FDA

> <name>
Methapyrilene

> <ABUNDANCE>
76.77% at pH 4.8

> <BLABBER_CHARGE>
2

> <inchi>
1S/C14H19N3S/c1-16(2)9-10-17(12-13-6-5-11-18-13)14-7-3-4-8-15-14/h3-8,11H,9-10,12H2,1-2H3

> <activity>
0

$$$$

  CDK     0331111707

 22 25  0  0  0  0  0  0  0  0999 V2000
    2.2561   -2.6347    0.0000 C   0  0  0  0  0  4  0  0  0  0  0  0
    3.0683   -2.4895    0.0000 C   0  0  0  0  0  4  0  0  0  0  0  0
    3.1278   -3.3123    0.0000 O   0  0  0  0  0  2  0  0  0  0  0  0
    2.8390   -1.6970    0.0000 C   0  0  0  0  0  4  0  0  0  0  0  0
    3.5218   -1.2340    0.0000 C   0  0  0  0  0  4  0  0  0  0  0  0
    4.1731   -1.7404    0.0000 C   0  0  0  0  0  4  0  0  0  0  0  0
    4.9853   -1.5952    0.0000 C   0  0  0  0  0  4  0  0  0  0  0  0
    5.2655   -0.8192    0.0000 C   0  0  0  0  0  4  0  0  0  0  0  0
    6.0777   -0.6740    0.0000 C   0  0  0  0  0  4  0  0  0  0  0  0
    6.6095   -1.3047    0.0000 C   0  0  0  0  0  4  0  0  0  0  0  0
    7.4216   -1.1595    0.0000 C   0  0  0  0  0  4  0  0  0  0  0  0
    7.9534   -1.7902    0.0000 C   0  0  0  0  0  4  0  0  0  0  0  0
    8.7655   -1.6450    0.0000 O   0  0  0  0  0  2  0  0  0  0  0  0
    7.6731   -2.5662    0.0000 C   0  0  0  0  0  4  0  0  0  0  0  0
    6.8610   -2.7114    0.0000 C   0  0  0  0  0  4  0  0  0  0  0  0
    6.3292   -2.0807    0.0000 C   0  0  0  0  0  4  0  0  0  0  0  0
    6.0489   -2.8566    0.0000 C   0  0  0  0  0  4  0  0  0  0  0  0
    5.5171   -2.2259    0.0000 C   0  0  0  0  0  4  0  0  0  0  0  0
    5.2368   -3.0018    0.0000 C   0  0  0  0  0  4  0  0  0  0  0  0
    4.4247   -3.1470    0.0000 C   0  0  0  0  0  4  0  0  0  0  0  0
    3.8928   -2.5163    0.0000 C   0  0  0  0  0  4  0  0  0  0  0  0
    3.5330   -3.2587    0.0000 C   0  0  0  0  0  4  0  0  0  0  0  0
  1  2  1  0  0  0  0 
  2  3  1  0  0  0  0 
  2  4  1  0  0  0  0 
  4  5  1  0  0  0  0 
  5  6  1  0  0  0  0 
  6  7  1  0  0  0  0 
  7  8  1  0  0  0  0 
  8  9  1  0  0  0  0 
  9 10  1  0  0  0  0 
 10 11  2  0  0  0  0 
 11 12  1  0  0  0  0 
 12 13  2  0  0  0  0 
 12 14  1  0  0  0  0 
 14 15  2  0  0  0  0 
 15 16  1  0  0  0  0 
 10 16  1  0  0  0  0 
 16 17  1  0  0  0  0 
 16 18  1  0  0  0  0 
  7 18  1  0  0  0  0 
 18 19  1  0  0  0  0 
 19 20  1  0  0  0  0 
 20 21  1  0  0  0  0 
  6 21  1  0  0  0  0 
  2 21  1  0  0  0  0 
 21 22  1  0  0  0  0 
M  END
> <Mol Weight>
300.4351

> <Formula>
C20H28O2

> <CdId>
338

> <RCDK_LipinskiFailures>
0

> <source>
FDA

> <name>
Methandrostenolone

> <ABUNDANCE>
100% at pH 4.8

> <BLABBER_CHARGE>


> <inchi>
1S/C20H28O2/c1-18-9-6-14(21)12-13(18)4-5-15-16(18)7-10-19(2)17(15)8-11-20(19,3)22/h6,9,12,15-17,22H,4-5,7-8,10-11H2,1-3H3

> <activity>
0

$$$$

  CDK     0331111707

 21 22  0  0  0  0  0  0  0  0999 V2000
    2.8579   -0.2211    0.0000 C   0  0  0  0  0  4  0  0  0  0  0  0
    2.4454   -0.9355    0.0000 C   0  0  0  0  0  4  0  0  0  0  0  0
    2.8579   -1.6500    0.0000 C   0  0  0  0  0  4  0  0  0  0  0  0
    2.4454   -2.3645    0.0000 C   0  0  0  0  0  4  0  0  0  0  0  0
    2.8579   -3.0789    0.0000 C   0  0  0  0  0  4  0  0  0  0  0  0
    2.4454   -3.7934    0.0000 C   0  0  0  0  0  4  0  0  0  0  0  0
    1.6204   -3.7934    0.0000 C   0  0  0  0  0  4  0  0  0  0  0  0
    1.2079   -4.5079    0.0000 C   0  0  0  0  0  4  0  0  0  0  0  0
    0.3829   -4.5079    0.0000 C   0  0  0  0  0  4  0  0  0  0  0  0
   -0.0296   -3.7934    0.0000 C   0  0  0  0  0  4  0  0  0  0  0  0
    0.3829   -3.0789    0.0000 C   0  0  0  0  0  4  0  0  0  0  0  0
    1.2079   -3.0789    0.0000 C   0  0  0  0  0  4  0  0  0  0  0  0
    1.6204   -2.3645    0.0000 C   0  0  0  0  0  4  0  0  0  0  0  0
   -0.0296   -5.2224    0.0000 O   0  0  0  0  0  2  0  0  0  0  0  0
   -0.8546   -5.2224    0.0000 C   0  0  0  0  0  4  0  0  0  0  0  0
    3.6829   -1.6500    0.0000 C   0  0  0  0  0  4  0  0  0  0  0  0
    3.6829   -2.4750    0.0000 C   0  0  0  0  0  4  0  0  0  0  0  0
    3.6829   -0.8250    0.0000 C   0  0  0  0  0  4  0  0  0  0  0  0
    4.5079   -1.6500    0.0000 C   0  0  0  0  0  4  0  0  0  0  0  0
    4.9204   -0.9355    0.0000 O   0  0  0  0  0  2  0  0  0  0  0  0
    4.9204   -2.3645    0.0000 O   0  0  0  0  0  2  0  0  0  0  0  0
  1  2  1  0  0  0  0 
  2  3  1  0  0  0  0 
  3  4  1  0  0  0  0 
  4  5  2  0  0  0  0 
  5  6  1  0  0  0  0 
  6  7  2  0  0  0  0 
  7  8  1  0  0  0  0 
  8  9  2  0  0  0  0 
  9 10  1  0  0  0  0 
 10 11  2  0  0  0  0 
 11 12  1  0  0  0  0 
  7 12  1  0  0  0  0 
 12 13  2  0  0  0  0 
  4 13  1  0  0  0  0 
  9 14  1  0  0  0  0 
 14 15  1  0  0  0  0 
  3 16  1  0  0  0  0 
 16 17  1  0  0  0  0 
 16 18  1  0  0  0  0 
 16 19  1  0  0  0  0 
 19 20  2  0  0  0  0 
 19 21  1  0  0  0  0 
M  END
> <Mol Weight>
286.3655

> <Formula>
C18H22O3

> <CdId>
337

> <RCDK_LipinskiFailures>
0

> <source>
FDA

> <name>
Methallenestril

> <ABUNDANCE>
57.52% at pH 4.8

> <BLABBER_CHARGE>


> <inchi>
1S/C18H22O3/c1-5-16(18(2,3)17(19)20)14-7-6-13-11-15(21-4)9-8-12(13)10-14/h6-11,16H,5H2,1-4H3,(H,19,20)

> <activity>
0

$$$$

  CDK     0331111707

 23 24  0  0  0  0  0  0  0  0999 V2000
   -0.2782   -2.6566    0.0000 C   0  0  0  0  0  4  0  0  0  0  0  0
    0.2153   -1.9954    0.0000 C   0  0  0  0  0  4  0  0  0  0  0  0
   -0.1105   -1.2375    0.0000 C   0  0  0  0  0  4  0  0  0  0  0  0
   -0.9298   -1.1407    0.0000 O   0  0  0  0  0  2  0  0  0  0  0  0
    0.3830   -0.5764    0.0000 C   0  0  0  0  0  4  0  0  0  0  0  0
    1.0441   -1.0698    0.0000 C   0  0  0  0  0  4  0  0  0  0  0  0
    1.8020   -0.7440    0.0000 C   0  0  0  0  0  4  0  0  0  0  0  0
    2.1473    0.0053    0.0000 C   0  0  0  0  0  4  0  0  0  0  0  0
    2.4632   -1.2375    0.0000 N   0  0  0  0  0  4  0  0  0  0  0  0
    3.2211   -0.9117    0.0000 C   0  0  0  0  0  4  0  0  0  0  0  0
    2.3664   -2.0568    0.0000 C   0  0  0  0  0  4  0  0  0  0  0  0
    0.8764    0.0848    0.0000 C   0  0  0  0  0  4  0  0  0  0  0  0
    0.5506    0.8427    0.0000 C   0  0  0  0  0  4  0  0  0  0  0  0
    1.0441    1.5038    0.0000 C   0  0  0  0  0  4  0  0  0  0  0  0
    1.8634    1.4070    0.0000 C   0  0  0  0  0  4  0  0  0  0  0  0
    2.1892    0.6491    0.0000 C   0  0  0  0  0  4  0  0  0  0  0  0
    1.6957   -0.0120    0.0000 C   0  0  0  0  0  4  0  0  0  0  0  0
   -0.2782   -0.0829    0.0000 C   0  0  0  0  0  4  0  0  0  0  0  0
   -1.0361   -0.4087    0.0000 C   0  0  0  0  0  4  0  0  0  0  0  0
   -1.6973    0.0848    0.0000 C   0  0  0  0  0  4  0  0  0  0  0  0
   -1.6005    0.9041    0.0000 C   0  0  0  0  0  4  0  0  0  0  0  0
   -0.8425    1.2299    0.0000 C   0  0  0  0  0  4  0  0  0  0  0  0
   -0.1814    0.7364    0.0000 C   0  0  0  0  0  4  0  0  0  0  0  0
  1  2  1  0  0  0  0 
  2  3  1  0  0  0  0 
  3  4  2  0  0  0  0 
  3  5  1  0  0  0  0 
  5  6  1  0  0  0  0 
  6  7  1  0  0  0  0 
  7  8  1  0  0  0  0 
  7  9  1  0  0  0  0 
  9 10  1  0  0  0  0 
  9 11  1  0  0  0  0 
  5 12  1  0  0  0  0 
 12 13  2  0  0  0  0 
 13 14  1  0  0  0  0 
 14 15  2  0  0  0  0 
 15 16  1  0  0  0  0 
 16 17  2  0  0  0  0 
 12 17  1  0  0  0  0 
  5 18  1  0  0  0  0 
 18 19  2  0  0  0  0 
 19 20  1  0  0  0  0 
 20 21  2  0  0  0  0 
 21 22  1  0  0  0  0 
 22 23  2  0  0  0  0 
 18 23  1  0  0  0  0 
M  CHG  1   9   1
M  END
> <Mol Weight>
309.4452

> <Formula>
C21H27NO

> <CdId>
336

> <RCDK_LipinskiFailures>
0

> <source>
BYLER

> <name>
methadone

> <ABUNDANCE>
99.99% at pH 4.8

> <BLABBER_CHARGE>
1

> <inchi>
1S/C21H27NO/c1-5-20(23)21(16-17(2)22(3)4,18-12-8-6-9-13-18)19-14-10-7-11-15-19/h6-15,17H,5,16H2,1-4H3

> <activity>
0

$$$$

  CDK     0331111707

 11 10  0  0  0  0  0  0  0  0999 V2000
    1.7605   -1.8414    0.0000 C   0  0  0  0  0  4  0  0  0  0  0  0
    2.4750   -1.4289    0.0000 C   0  0  0  0  0  4  0  0  0  0  0  0
    2.4750   -0.6039    0.0000 O   0  0  0  0  0  2  0  0  0  0  0  0
    3.1895   -1.8414    0.0000 O   0  0  0  0  0  2  0  0  0  0  0  0
    3.9039   -1.4289    0.0000 C   0  0  0  0  0  4  0  0  0  0  0  0
    3.9039   -0.6039    0.0000 C   0  0  0  0  0  4  0  0  0  0  0  0
    4.6184   -1.8414    0.0000 C   0  0  0  0  0  4  0  0  0  0  0  0
    5.3329   -1.4289    0.0000 N   0  0  0  0  0  4  0  0  0  0  0  0
    6.0474   -1.0164    0.0000 C   0  0  0  0  0  4  0  0  0  0  0  0
    5.7454   -2.1434    0.0000 C   0  0  0  0  0  4  0  0  0  0  0  0
    4.9204   -0.7145    0.0000 C   0  0  0  0  0  4  0  0  0  0  0  0
  1  2  1  0  0  0  0 
  2  3  2  0  0  0  0 
  2  4  1  0  0  0  0 
  4  5  1  0  0  0  0 
  5  6  1  0  0  0  0 
  5  7  1  0  0  0  0 
  7  8  1  0  0  0  0 
  8  9  1  0  0  0  0 
  8 10  1  0  0  0  0 
  8 11  1  0  0  0  0 
M  CHG  1   8   1
M  END
> <Mol Weight>
160.234

> <Formula>
C8H18NO2

> <CdId>
335

> <RCDK_LipinskiFailures>
0

> <source>
FDA

> <name>
Methacholine

> <ABUNDANCE>
No species found

> <BLABBER_CHARGE>
1

> <inchi>
1S/C8H18NO2/c1-7(11-8(2)10)6-9(3,4)5/h7H,6H2,1-5H3/q+1

> <activity>
0

$$$$

  CDK     0331111707

  9  8  0  0  0  0  0  0  0  0999 V2000
   -0.1914    0.7145    0.0000 C   0  0  0  0  0  4  0  0  0  0  0  0
    0.5230    1.1270    0.0000 N   0  0  0  0  0  3  0  0  0  0  0  0
    0.5230    1.9520    0.0000 C   0  0  0  0  0  4  0  0  0  0  0  0
    1.2375    0.7145    0.0000 C   0  0  0  0  0  4  0  0  0  0  0  0
    1.2375   -0.1105    0.0000 N   0  0  0  0  0  4  0  0  0  0  0  0
    1.9520    1.1270    0.0000 N   0  0  0  0  0  3  0  0  0  0  0  0
    2.6664    0.7145    0.0000 C   0  0  0  0  0  4  0  0  0  0  0  0
    3.3809    1.1270    0.0000 N   0  0  0  0  0  3  0  0  0  0  0  0
    2.6664   -0.1105    0.0000 N   0  0  0  0  0  3  0  0  0  0  0  0
  1  2  1  0  0  0  0 
  2  3  1  0  0  0  0 
  2  4  1  0  0  0  0 
  4  5  2  0  0  0  0 
  4  6  1  0  0  0  0 
  6  7  1  0  0  0  0 
  7  8  2  0  0  0  0 
  7  9  1  0  0  0  0 
M  CHG  1   5   1
M  END
> <Mol Weight>
129.1636

> <Formula>
C4H11N5

> <CdId>
334

> <RCDK_LipinskiFailures>
0

> <source>
FDA

> <name>
Metformin

> <ABUNDANCE>
60.5% at pH 4.8

> <BLABBER_CHARGE>
1

> <CHECK TAUTOMER>
Multiple tautomers in input structure. Results could be inaccurate.

> <inchi>
1S/C4H11N5/c1-9(2)4(7)8-3(5)6/h1-2H3,(H5,5,6,7,8)

> <activity>
0

$$$$

  CDK     0331111707

 16 17  0  0  0  0  0  0  0  0999 V2000
    3.4656    6.0027    0.0000 C   0  0  0  0  0  4  0  0  0  0  0  0
    4.1801    5.5902    0.0000 C   0  0  0  0  0  4  0  0  0  0  0  0
    4.8946    6.0027    0.0000 C   0  0  0  0  0  4  0  0  0  0  0  0
    5.6091    5.5902    0.0000 C   0  0  0  0  0  4  0  0  0  0  0  0
    6.3235    6.0027    0.0000 C   0  0  0  0  0  4  0  0  0  0  0  0
    5.6091    4.7652    0.0000 C   0  0  0  0  0  4  0  0  0  0  0  0
    4.8946    4.3527    0.0000 C   0  0  0  0  0  4  0  0  0  0  0  0
    4.1801    4.7652    0.0000 C   0  0  0  0  0  4  0  0  0  0  0  0
    4.8946    3.5277    0.0000 O   0  0  0  0  0  2  0  0  0  0  0  0
    4.1801    3.1152    0.0000 C   0  0  0  0  0  4  0  0  0  0  0  0
    4.1801    2.2902    0.0000 C   0  0  0  0  0  4  0  0  0  0  0  0
    4.8476    1.8053    0.0000 C   0  0  0  0  0  4  0  0  0  0  0  0
    4.5926    1.0206    0.0000 N   0  0  0  0  0  3  0  0  0  0  0  0
    3.7676    1.0206    0.0000 C   0  0  0  0  0  4  0  0  0  0  0  0
    3.2827    0.3532    0.0000 O   0  0  0  0  0  2  0  0  0  0  0  0
    3.5127    1.8053    0.0000 O   0  0  0  0  0  2  0  0  0  0  0  0
  1  2  1  0  0  0  0 
  2  3  2  0  0  0  0 
  3  4  1  0  0  0  0 
  4  5  1  0  0  0  0 
  4  6  2  0  0  0  0 
  6  7  1  0  0  0  0 
  7  8  2  0  0  0  0 
  2  8  1  0  0  0  0 
  7  9  1  0  0  0  0 
  9 10  1  0  0  0  0 
 10 11  1  0  0  0  0 
 11 12  1  0  0  0  0 
 12 13  1  0  0  0  0 
 13 14  1  0  0  0  0 
 14 15  2  0  0  0  0 
 14 16  1  0  0  0  0 
 11 16  1  0  0  0  0 
M  END
> <Mol Weight>
221.2524

> <Formula>
C12H15NO3

> <CdId>
333

> <RCDK_LipinskiFailures>
0

> <source>
FDA

> <name>
Metaxalone

> <ABUNDANCE>
100% at pH 4.8

> <BLABBER_CHARGE>


> <inchi>
1S/C12H15NO3/c1-8-3-9(2)5-10(4-8)15-7-11-6-13-12(14)16-11/h3-5,11H,6-7H2,1-2H3,(H,13,14)

> <activity>
0

$$$$

  CDK     0331111707

 21 22  0  0  0  0  0  0  0  0999 V2000
   -2.1434   -4.5375    0.0000 C   0  0  0  0  0  4  0  0  0  0  0  0
   -1.4289   -4.1250    0.0000 C   0  0  0  0  0  4  0  0  0  0  0  0
   -1.4289   -3.3000    0.0000 C   0  0  0  0  0  4  0  0  0  0  0  0
   -0.7145   -2.8875    0.0000 C   0  0  0  0  0  4  0  0  0  0  0  0
    0.0000   -3.3000    0.0000 C   0  0  0  0  0  4  0  0  0  0  0  0
    0.0000   -4.1250    0.0000 C   0  0  0  0  0  4  0  0  0  0  0  0
   -0.7145   -4.5375    0.0000 C   0  0  0  0  0  4  0  0  0  0  0  0
   -0.7145   -5.3625    0.0000 N   0  0  0  0  0  3  0  0  0  0  0  0
    0.7145   -2.8875    0.0000 S   0  0  0  0  0  6  0  0  0  0  0  0
    1.1270   -3.6020    0.0000 O   0  0  0  0  0  2  0  0  0  0  0  0
    0.3020   -2.1730    0.0000 O   0  0  0  0  0  2  0  0  0  0  0  0
    1.4289   -2.4750    0.0000 N   0  0  0  0  0  3  0  0  0  0  0  0
    2.1434   -2.8875    0.0000 C   0  0  0  0  0  4  0  0  0  0  0  0
    2.1434   -3.7125    0.0000 O   0  0  0  0  0  2  0  0  0  0  0  0
    2.8579   -2.4750    0.0000 N   0  0  0  0  0  3  0  0  0  0  0  0
    3.5724   -2.8875    0.0000 C   0  0  0  0  0  4  0  0  0  0  0  0
    4.2868   -2.4750    0.0000 C   0  0  0  0  0  4  0  0  0  0  0  0
    5.0013   -2.8875    0.0000 C   0  0  0  0  0  4  0  0  0  0  0  0
    5.0013   -3.7125    0.0000 C   0  0  0  0  0  4  0  0  0  0  0  0
    4.2868   -4.1250    0.0000 C   0  0  0  0  0  4  0  0  0  0  0  0
    3.5724   -3.7125    0.0000 C   0  0  0  0  0  4  0  0  0  0  0  0
  1  2  1  0  0  0  0 
  2  3  2  0  0  0  0 
  3  4  1  0  0  0  0 
  4  5  2  0  0  0  0 
  5  6  1  0  0  0  0 
  6  7  2  0  0  0  0 
  2  7  1  0  0  0  0 
  7  8  1  0  0  0  0 
  5  9  1  0  0  0  0 
  9 10  2  0  0  0  0 
  9 11  2  0  0  0  0 
  9 12  1  0  0  0  0 
 12 13  1  0  0  0  0 
 13 14  2  0  0  0  0 
 13 15  1  0  0  0  0 
 15 16  1  0  0  0  0 
 16 17  1  0  0  0  0 
 17 18  1  0  0  0  0 
 18 19  1  0  0  0  0 
 19 20  1  0  0  0  0 
 20 21  1  0  0  0  0 
 16 21  1  0  0  0  0 
M  END
> <Mol Weight>
311.4

> <Formula>
C14H21N3O3S

> <CdId>
332

> <RCDK_LipinskiFailures>
0

> <source>
FDA

> <name>
Metahexamide

> <ABUNDANCE>
77.52% at pH 4.8

> <BLABBER_CHARGE>


> <inchi>
1S/C14H21N3O3S/c1-10-7-8-12(9-13(10)15)21(19,20)17-14(18)16-11-5-3-2-4-6-11/h7-9,11H,2-6,15H2,1H3,(H2,16,17,18)

> <activity>
0

$$$$

  CDK     0331111707

 10 11  0  0  0  0  0  0  0  0999 V2000
    0.6538   -0.6979    0.0000 C   0  0  0  0  0  4  0  0  0  0  0  0
    1.1387   -0.0305    0.0000 N   0  0  0  0  0  3  0  0  0  0  0  0
    1.9233   -0.2854    0.0000 C   0  0  0  0  0  4  0  0  0  0  0  0
    2.6378    0.1271    0.0000 N   0  0  0  0  0  4  0  0  0  0  0  0
    3.3523   -0.2854    0.0000 C   0  0  0  0  0  4  0  0  0  0  0  0
    3.3523   -1.1104    0.0000 N   0  0  0  0  0  3  0  0  0  0  0  0
    2.6378   -1.5229    0.0000 C   0  0  0  0  0  4  0  0  0  0  0  0
    1.9233   -1.1104    0.0000 C   0  0  0  0  0  4  0  0  0  0  0  0
    1.1387   -1.3654    0.0000 N   0  0  0  0  0  3  0  0  0  0  0  0
    2.6378   -2.3479    0.0000 S   0  0  0  0  0  1  0  0  0  0  0  0
  1  2  2  0  0  0  0 
  2  3  1  0  0  0  0 
  3  4  2  0  0  0  0 
  4  5  1  0  0  0  0 
  5  6  2  0  0  0  0 
  6  7  1  0  0  0  0 
  7  8  2  0  0  0  0 
  3  8  1  0  0  0  0 
  8  9  1  0  0  0  0 
  1  9  1  0  0  0  0 
  7 10  1  0  0  0  0 
M  CHG  1   4   1
M  CHG  1  10  -1
M  END
> <Mol Weight>
152.177

> <Formula>
C5H4N4S

> <CdId>
330

> <RCDK_LipinskiFailures>
0

> <source>
FDA

> <name>
Mercaptopurine, 6-

> <ABUNDANCE>
97.49% at pH 4.8

> <BLABBER_CHARGE>
0

> <CHECK TAUTOMER>
Multiple tautomers in input structure. Results could be inaccurate.

> <inchi>
1S/C5H4N4S/c10-5-3-4(7-1-6-3)8-2-9-5/h1-2H,(H2,6,7,8,9,10)

> <activity>
0

$$$$

  CDK     0331111707

 27 30  0  0  0  0  0  0  0  0999 V2000
    2.0630   -1.4167    0.0000 C   0  0  0  0  0  4  0  0  0  0  0  0
    2.8390   -1.6970    0.0000 C   0  0  0  0  0  4  0  0  0  0  0  0
    3.5218   -1.2340    0.0000 C   0  0  0  0  0  4  0  0  0  0  0  0
    4.1731   -1.7404    0.0000 C   0  0  0  0  0  4  0  0  0  0  0  0
    4.9853   -1.5952    0.0000 C   0  0  0  0  0  4  0  0  0  0  0  0
    5.2655   -0.8192    0.0000 C   0  0  0  0  0  4  0  0  0  0  0  0
    6.0777   -0.6740    0.0000 C   0  0  0  0  0  4  0  0  0  0  0  0
    6.6095   -1.3047    0.0000 C   0  0  0  0  0  4  0  0  0  0  0  0
    7.4216   -1.1595    0.0000 C   0  0  0  0  0  4  0  0  0  0  0  0
    7.9534   -1.7902    0.0000 C   0  0  0  0  0  4  0  0  0  0  0  0
    8.7655   -1.6450    0.0000 O   0  0  0  0  0  2  0  0  0  0  0  0
    7.6731   -2.5662    0.0000 C   0  0  0  0  0  4  0  0  0  0  0  0
    6.8610   -2.7114    0.0000 C   0  0  0  0  0  4  0  0  0  0  0  0
    6.3292   -2.0807    0.0000 C   0  0  0  0  0  4  0  0  0  0  0  0
    6.0489   -2.8566    0.0000 C   0  0  0  0  0  4  0  0  0  0  0  0
    5.5171   -2.2259    0.0000 C   0  0  0  0  0  4  0  0  0  0  0  0
    5.2368   -3.0018    0.0000 C   0  0  0  0  0  4  0  0  0  0  0  0
    5.7686   -3.6325    0.0000 O   0  0  0  0  0  2  0  0  0  0  0  0
    4.4247   -3.1470    0.0000 C   0  0  0  0  0  4  0  0  0  0  0  0
    3.8928   -2.5163    0.0000 C   0  0  0  0  0  4  0  0  0  0  0  0
    3.5330   -3.2587    0.0000 C   0  0  0  0  0  4  0  0  0  0  0  0
    3.0683   -2.4895    0.0000 C   0  0  0  0  0  4  0  0  0  0  0  0
    2.9469   -3.3055    0.0000 O   0  0  0  0  0  2  0  0  0  0  0  0
    2.3074   -2.8084    0.0000 C   0  0  0  0  0  4  0  0  0  0  0  0
    2.2031   -3.6268    0.0000 O   0  0  0  0  0  2  0  0  0  0  0  0
    1.6508   -2.3089    0.0000 C   0  0  0  0  0  4  0  0  0  0  0  0
    0.8899   -2.6277    0.0000 O   0  0  0  0  0  2  0  0  0  0  0  0
  1  2  1  0  0  0  0 
  2  3  1  0  0  0  0 
  3  4  1  0  0  0  0 
  4  5  1  0  0  0  0 
  5  6  1  0  0  0  0 
  6  7  1  0  0  0  0 
  7  8  1  0  0  0  0 
  8  9  2  0  0  0  0 
  9 10  1  0  0  0  0 
 10 11  2  0  0  0  0 
 10 12  1  0  0  0  0 
 12 13  2  0  0  0  0 
 13 14  1  0  0  0  0 
  8 14  1  0  0  0  0 
 14 15  1  0  0  0  0 
 14 16  1  0  0  0  0 
  5 16  1  0  0  0  0 
 16 17  1  0  0  0  0 
 17 18  2  0  0  0  0 
 17 19  1  0  0  0  0 
 19 20  1  0  0  0  0 
  4 20  1  0  0  0  0 
 20 21  1  0  0  0  0 
 20 22  1  0  0  0  0 
  2 22  1  0  0  0  0 
 22 23  1  0  0  0  0 
 22 24  1  0  0  0  0 
 24 25  2  0  0  0  0 
 24 26  1  0  0  0  0 
 26 27  1  0  0  0  0 
M  END
> <Mol Weight>
372.4547

> <Formula>
C22H28O5

> <CdId>
329

> <RCDK_LipinskiFailures>
0

> <source>
FDA

> <name>
Meprednisone

> <ABUNDANCE>
100% at pH 4.8

> <BLABBER_CHARGE>


> <inchi>
1S/C22H28O5/c1-12-8-16-15-5-4-13-9-14(24)6-7-20(13,2)19(15)17(25)10-21(16,3)22(12,27)18(26)11-23/h6-7,9,12,15-16,19,23,27H,4-5,8,10-11H2,1-3H3

> <activity>
0

$$$$

  CDK     0331111707

 25 27  0  0  0  0  0  0  0  0999 V2000
   -1.6427   -0.4950    0.0000 C   0  0  0  0  0  4  0  0  0  0  0  0
   -2.1730   -1.1270    0.0000 N   0  0  0  0  0  4  0  0  0  0  0  0
   -2.7033   -0.4950    0.0000 C   0  0  0  0  0  4  0  0  0  0  0  0
   -1.4586   -1.5395    0.0000 C   0  0  0  0  0  4  0  0  0  0  0  0
   -1.4586   -2.3645    0.0000 C   0  0  0  0  0  4  0  0  0  0  0  0
   -2.1730   -2.7770    0.0000 C   0  0  0  0  0  4  0  0  0  0  0  0
   -2.8875   -2.3645    0.0000 C   0  0  0  0  0  4  0  0  0  0  0  0
   -2.8875   -1.5395    0.0000 C   0  0  0  0  0  4  0  0  0  0  0  0
   -3.6020   -2.7770    0.0000 O   0  0  0  0  0  2  0  0  0  0  0  0
   -3.6020   -3.6020    0.0000 C   0  0  0  0  0  4  0  0  0  0  0  0
   -2.8875   -4.0145    0.0000 O   0  0  0  0  0  2  0  0  0  0  0  0
   -4.3164   -4.0145    0.0000 C   0  0  0  0  0  4  0  0  0  0  0  0
   -4.7289   -3.3000    0.0000 O   0  0  0  0  0  2  0  0  0  0  0  0
   -5.0309   -4.4270    0.0000 C   0  0  0  0  0  4  0  0  0  0  0  0
   -5.0309   -5.2520    0.0000 C   0  0  0  0  0  4  0  0  0  0  0  0
   -5.7454   -5.6645    0.0000 C   0  0  0  0  0  4  0  0  0  0  0  0
   -6.4599   -5.2520    0.0000 C   0  0  0  0  0  4  0  0  0  0  0  0
   -6.4599   -4.4270    0.0000 C   0  0  0  0  0  4  0  0  0  0  0  0
   -5.7454   -4.0145    0.0000 C   0  0  0  0  0  4  0  0  0  0  0  0
   -3.9039   -4.7289    0.0000 C   0  0  0  0  0  4  0  0  0  0  0  0
   -3.0789   -4.7289    0.0000 C   0  0  0  0  0  4  0  0  0  0  0  0
   -2.6664   -5.4434    0.0000 C   0  0  0  0  0  4  0  0  0  0  0  0
   -3.0789   -6.1579    0.0000 C   0  0  0  0  0  4  0  0  0  0  0  0
   -3.9039   -6.1579    0.0000 C   0  0  0  0  0  4  0  0  0  0  0  0
   -4.3164   -5.4434    0.0000 C   0  0  0  0  0  4  0  0  0  0  0  0
  1  2  1  0  0  0  0 
  2  3  1  0  0  0  0 
  2  4  1  0  0  0  0 
  4  5  1  0  0  0  0 
  5  6  1  0  0  0  0 
  6  7  1  0  0  0  0 
  7  8  1  0  0  0  0 
  2  8  1  0  0  0  0 
  7  9  1  0  0  0  0 
  9 10  1  0  0  0  0 
 10 11  2  0  0  0  0 
 10 12  1  0  0  0  0 
 12 13  1  0  0  0  0 
 12 14  1  0  0  0  0 
 14 15  2  0  0  0  0 
 15 16  1  0  0  0  0 
 16 17  2  0  0  0  0 
 17 18  1  0  0  0  0 
 18 19  2  0  0  0  0 
 14 19  1  0  0  0  0 
 12 20  1  0  0  0  0 
 20 21  2  0  0  0  0 
 21 22  1  0  0  0  0 
 22 23  2  0  0  0  0 
 23 24  1  0  0  0  0 
 24 25  2  0  0  0  0 
 20 25  1  0  0  0  0 
M  CHG  1   2   1
M  END
> <Mol Weight>
340.436

> <Formula>
C21H26NO3

> <CdId>
328

> <RCDK_LipinskiFailures>
0

> <source>
FDA

> <name>
Mepenzolate

> <ABUNDANCE>
100% at pH 4.8

> <BLABBER_CHARGE>
1

> <inchi>
1S/C21H26NO3/c1-22(2)15-9-14-19(16-22)25-20(23)21(24,17-10-5-3-6-11-17)18-12-7-4-8-13-18/h3-8,10-13,19,24H,9,14-16H2,1-2H3/q+1

> <activity>
0

$$$$

  CDK     0331111707

 13 14  0  0  0  0  0  0  0  0999 V2000
    0.0000   -1.6500    0.0000 C   0  0  0  0  0  4  0  0  0  0  0  0
    0.7145   -1.2375    0.0000 C   0  0  0  0  0  4  0  0  0  0  0  0
    0.7145   -0.4125    0.0000 C   0  0  0  0  0  4  0  0  0  0  0  0
    1.4289    0.0000    0.0000 C   0  0  0  0  0  4  0  0  0  0  0  0
    1.4289    0.8250    0.0000 O   0  0  0  0  0  2  0  0  0  0  0  0
    2.1434   -0.4125    0.0000 C   0  0  0  0  0  4  0  0  0  0  0  0
    2.8579    0.0000    0.0000 C   0  0  0  0  0  4  0  0  0  0  0  0
    3.5724   -0.4125    0.0000 C   0  0  0  0  0  4  0  0  0  0  0  0
    3.5724   -1.2375    0.0000 C   0  0  0  0  0  4  0  0  0  0  0  0
    2.8579   -1.6500    0.0000 C   0  0  0  0  0  4  0  0  0  0  0  0
    2.1434   -1.2375    0.0000 C   0  0  0  0  0  4  0  0  0  0  0  0
    1.4289   -1.6500    0.0000 C   0  0  0  0  0  4  0  0  0  0  0  0
    1.4289   -2.4750    0.0000 O   0  0  0  0  0  2  0  0  0  0  0  0
  1  2  1  0  0  0  0 
  2  3  2  0  0  0  0 
  3  4  1  0  0  0  0 
  4  5  2  0  0  0  0 
  4  6  1  0  0  0  0 
  6  7  2  0  0  0  0 
  7  8  1  0  0  0  0 
  8  9  2  0  0  0  0 
  9 10  1  0  0  0  0 
 10 11  2  0  0  0  0 
  6 11  1  0  0  0  0 
 11 12  1  0  0  0  0 
  2 12  1  0  0  0  0 
 12 13  2  0  0  0  0 
M  END
> <Mol Weight>
172.18

> <Formula>
C11H8O2

> <CdId>
327

> <RCDK_LipinskiFailures>
0

> <source>
FDA

> <name>
Menadione

> <ABUNDANCE>
No species found

> <BLABBER_CHARGE>


> <inchi>
1S/C11H8O2/c1-7-6-10(12)8-4-2-3-5-9(8)11(7)13/h2-6H,1H3

> <activity>
0

$$$$

  CDK     0331111707

 19 19  0  0  0  0  0  0  0  0999 V2000
    5.2224    5.5243    0.0000 N   0  0  0  0  0  4  0  0  0  0  0  0
    6.0474    5.5243    0.0000 C   0  0  0  0  0  4  0  0  0  0  0  0
    6.4599    4.8099    0.0000 C   0  0  0  0  0  4  0  0  0  0  0  0
    6.0474    4.0954    0.0000 C   0  0  0  0  0  4  0  0  0  0  0  0
    6.4599    3.3809    0.0000 C   0  0  0  0  0  4  0  0  0  0  0  0
    6.0474    2.6664    0.0000 C   0  0  0  0  0  4  0  0  0  0  0  0
    5.2224    2.6664    0.0000 C   0  0  0  0  0  4  0  0  0  0  0  0
    4.8099    3.3809    0.0000 C   0  0  0  0  0  4  0  0  0  0  0  0
    5.2224    4.0954    0.0000 C   0  0  0  0  0  4  0  0  0  0  0  0
    4.8099    1.9520    0.0000 N   0  0  0  0  0  4  0  0  0  0  0  0
    3.9849    1.9520    0.0000 C   0  0  0  0  0  4  0  0  0  0  0  0
    3.5724    1.2375    0.0000 C   0  0  0  0  0  4  0  0  0  0  0  0
    2.7474    1.2375    0.0000 Cl  0  0  0  0  0  1  0  0  0  0  0  0
    5.2224    1.2375    0.0000 C   0  0  0  0  0  4  0  0  0  0  0  0
    6.0474    1.2375    0.0000 C   0  0  0  0  0  4  0  0  0  0  0  0
    6.4599    0.5230    0.0000 Cl  0  0  0  0  0  1  0  0  0  0  0  0
    6.4599    6.2388    0.0000 C   0  0  0  0  0  4  0  0  0  0  0  0
    6.0474    6.9533    0.0000 O   0  0  0  0  0  2  0  0  0  0  0  0
    7.2849    6.2388    0.0000 O   0  0  0  0  0  1  0  0  0  0  0  0
  1  2  1  0  0  0  0 
  2  3  1  0  0  0  0 
  3  4  1  0  0  0  0 
  4  5  2  0  0  0  0 
  5  6  1  0  0  0  0 
  6  7  2  0  0  0  0 
  7  8  1  0  0  0  0 
  8  9  2  0  0  0  0 
  4  9  1  0  0  0  0 
  7 10  1  0  0  0  0 
 10 11  1  0  0  0  0 
 11 12  1  0  0  0  0 
 12 13  1  0  0  0  0 
 10 14  1  0  0  0  0 
 14 15  1  0  0  0  0 
 15 16  1  0  0  0  0 
  2 17  1  0  0  0  0 
 17 18  2  0  0  0  0 
 17 19  1  0  0  0  0 
M  CHG  1   1   1
M  CHG  1  10   1
M  CHG  1  19  -1
M  END
> <Mol Weight>
305.2

> <Formula>
C13H18Cl2N2O2

> <CdId>
325

> <RCDK_LipinskiFailures>
0

> <source>
FDA

> <name>
Melphalan

> <ABUNDANCE>
52.06% at pH 4.8

> <BLABBER_CHARGE>
1

> <inchi>
1S/C13H18Cl2N2O2/c14-5-7-17(8-6-15)11-3-1-10(2-4-11)9-12(16)13(18)19/h1-4,12H,5-9,16H2,(H,18,19)

> <activity>
0

$$$$

  CDK     0331111707

 10  9  0  0  0  0  0  0  0  0999 V2000
    1.0461    1.4289    0.0000 N   0  0  0  0  0  4  0  0  0  0  0  0
    1.7605    1.8414    0.0000 C   0  0  0  0  0  4  0  0  0  0  0  0
    2.4750    1.4289    0.0000 C   0  0  0  0  0  4  0  0  0  0  0  0
    3.1895    1.8414    0.0000 C   0  0  0  0  0  4  0  0  0  0  0  0
    3.9039    1.4289    0.0000 C   0  0  0  0  0  4  0  0  0  0  0  0
    4.6184    1.8414    0.0000 C   0  0  0  0  0  4  0  0  0  0  0  0
    4.6184    2.6664    0.0000 N   0  0  0  0  0  4  0  0  0  0  0  0
    5.3329    1.4289    0.0000 C   0  0  0  0  0  4  0  0  0  0  0  0
    6.0474    1.8414    0.0000 O   0  0  0  0  0  2  0  0  0  0  0  0
    5.3329    0.6039    0.0000 O   0  0  0  0  0  1  0  0  0  0  0  0
  1  2  1  0  0  0  0 
  2  3  1  0  0  0  0 
  3  4  1  0  0  0  0 
  4  5  1  0  0  0  0 
  5  6  1  0  0  0  0 
  6  7  1  0  0  0  0 
  6  8  1  0  0  0  0 
  8  9  2  0  0  0  0 
  8 10  1  0  0  0  0 
M  CHG  1   1   1
M  CHG  1   7   1
M  CHG  1  10  -1
M  END
> <Mol Weight>
146.1876

> <Formula>
C6H14N2O2

> <CdId>
321

> <RCDK_LipinskiFailures>
0

> <source>
FDA

> <name>
Lysine

> <ABUNDANCE>
99.84% at pH 4.8

> <BLABBER_CHARGE>
1

> <inchi>
1S/C6H14N2O2/c7-4-2-1-3-5(8)6(9)10/h5H,1-4,7-8H2,(H,9,10)

> <activity>
0

$$$$

  CDK     0331111707

 24 26  0  0  0  0  0  0  0  0999 V2000
   -0.1105   -3.9336    0.0000 C   0  0  0  0  0  4  0  0  0  0  0  0
    0.7145   -3.9336    0.0000 C   0  0  0  0  0  4  0  0  0  0  0  0
    1.1270   -4.6480    0.0000 N   0  0  0  0  0  4  0  0  0  0  0  0
    0.7145   -5.3625    0.0000 C   0  0  0  0  0  4  0  0  0  0  0  0
   -0.1105   -5.3625    0.0000 C   0  0  0  0  0  4  0  0  0  0  0  0
    1.9520   -4.6480    0.0000 C   0  0  0  0  0  4  0  0  0  0  0  0
    2.3645   -5.3625    0.0000 C   0  0  0  0  0  4  0  0  0  0  0  0
    3.1895   -5.3625    0.0000 N   0  0  0  0  0  3  0  0  0  0  0  0
    3.6020   -6.0770    0.0000 C   0  0  0  0  0  4  0  0  0  0  0  0
    3.1895   -6.7914    0.0000 C   0  0  0  0  0  4  0  0  0  0  0  0
    3.6020   -7.5059    0.0000 C   0  0  0  0  0  4  0  0  0  0  0  0
    4.4270   -7.5059    0.0000 C   0  0  0  0  0  4  0  0  0  0  0  0
    4.8395   -8.2204    0.0000 C   0  0  0  0  0  4  0  0  0  0  0  0
    4.8395   -6.7914    0.0000 C   0  0  0  0  0  4  0  0  0  0  0  0
    4.4270   -6.0770    0.0000 C   0  0  0  0  0  4  0  0  0  0  0  0
    4.8395   -5.3625    0.0000 C   0  0  0  0  0  4  0  0  0  0  0  0
    4.4270   -4.6480    0.0000 O   0  0  0  0  0  2  0  0  0  0  0  0
    5.6645   -5.3625    0.0000 C   0  0  0  0  0  4  0  0  0  0  0  0
    6.0770   -4.6480    0.0000 C   0  0  0  0  0  4  0  0  0  0  0  0
    6.9020   -4.6480    0.0000 C   0  0  0  0  0  4  0  0  0  0  0  0
    7.3145   -5.3625    0.0000 C   0  0  0  0  0  4  0  0  0  0  0  0
    6.9020   -6.0770    0.0000 C   0  0  0  0  0  4  0  0  0  0  0  0
    6.0770   -6.0770    0.0000 C   0  0  0  0  0  4  0  0  0  0  0  0
    5.6645   -6.7914    0.0000 S   0  0  0  0  0  2  0  0  0  0  0  0
  1  2  1  0  0  0  0 
  2  3  1  0  0  0  0 
  3  4  1  0  0  0  0 
  4  5  1  0  0  0  0 
  3  6  1  0  0  0  0 
  6  7  1  0  0  0  0 
  7  8  1  0  0  0  0 
  8  9  1  0  0  0  0 
  9 10  2  0  0  0  0 
 10 11  1  0  0  0  0 
 11 12  2  0  0  0  0 
 12 13  1  0  0  0  0 
 12 14  1  0  0  0  0 
 14 15  2  0  0  0  0 
  9 15  1  0  0  0  0 
 15 16  1  0  0  0  0 
 16 17  2  0  0  0  0 
 16 18  1  0  0  0  0 
 18 19  2  0  0  0  0 
 19 20  1  0  0  0  0 
 20 21  2  0  0  0  0 
 21 22  1  0  0  0  0 
 22 23  2  0  0  0  0 
 18 23  1  0  0  0  0 
 23 24  1  0  0  0  0 
 14 24  1  0  0  0  0 
M  CHG  1   3   1
M  END
> <Mol Weight>
340.482

> <Formula>
C20H24N2OS

> <CdId>
318

> <RCDK_LipinskiFailures>
0

> <source>
FDA

> <name>
Lucanthone

> <ABUNDANCE>
93.76% at pH 4.8

> <BLABBER_CHARGE>
1

> <inchi>
1S/C20H24N2OS/c1-4-22(5-2)13-12-21-16-11-10-14(3)20-18(16)19(23)15-8-6-7-9-17(15)24-20/h6-11,21H,4-5,12-13H2,1-3H3

> <activity>
0

$$$$

  CDK     0331111707

 23 26  0  0  0  0  0  0  0  0999 V2000
    1.9594    3.9102    0.0000 C   0  0  0  0  0  4  0  0  0  0  0  0
    2.3173    3.1669    0.0000 N   0  0  0  0  0  4  0  0  0  0  0  0
    3.1400    3.1053    0.0000 C   0  0  0  0  0  4  0  0  0  0  0  0
    3.4980    2.3620    0.0000 C   0  0  0  0  0  4  0  0  0  0  0  0
    3.0332    1.6803    0.0000 N   0  0  0  0  0  3  0  0  0  0  0  0
    2.2105    1.7420    0.0000 C   0  0  0  0  0  4  0  0  0  0  0  0
    1.8526    2.4853    0.0000 C   0  0  0  0  0  4  0  0  0  0  0  0
    3.3912    0.9370    0.0000 C   0  0  0  0  0  4  0  0  0  0  0  0
    4.2162    0.9370    0.0000 N   0  0  0  0  0  3  0  0  0  0  0  0
    4.7305    0.2920    0.0000 C   0  0  0  0  0  4  0  0  0  0  0  0
    5.5189    0.5352    0.0000 C   0  0  0  0  0  4  0  0  0  0  0  0
    6.1237   -0.0260    0.0000 C   0  0  0  0  0  4  0  0  0  0  0  0
    5.9401   -0.8303    0.0000 C   0  0  0  0  0  4  0  0  0  0  0  0
    5.1517   -1.0735    0.0000 C   0  0  0  0  0  4  0  0  0  0  0  0
    4.5470   -0.5123    0.0000 C   0  0  0  0  0  4  0  0  0  0  0  0
    3.8037   -0.8703    0.0000 O   0  0  0  0  0  2  0  0  0  0  0  0
    3.0604   -0.5123    0.0000 C   0  0  0  0  0  4  0  0  0  0  0  0
    2.4556   -1.0735    0.0000 C   0  0  0  0  0  4  0  0  0  0  0  0
    1.6673   -0.8303    0.0000 C   0  0  0  0  0  4  0  0  0  0  0  0
    1.4837   -0.0260    0.0000 C   0  0  0  0  0  4  0  0  0  0  0  0
    2.0884    0.5352    0.0000 C   0  0  0  0  0  4  0  0  0  0  0  0
    2.8768    0.2920    0.0000 C   0  0  0  0  0  4  0  0  0  0  0  0
    0.6953    0.2172    0.0000 Cl  0  0  0  0  0  1  0  0  0  0  0  0
  1  2  1  0  0  0  0 
  2  3  1  0  0  0  0 
  3  4  1  0  0  0  0 
  4  5  1  0  0  0  0 
  5  6  1  0  0  0  0 
  6  7  1  0  0  0  0 
  2  7  1  0  0  0  0 
  5  8  1  0  0  0  0 
  8  9  2  0  0  0  0 
  9 10  1  0  0  0  0 
 10 11  2  0  0  0  0 
 11 12  1  0  0  0  0 
 12 13  2  0  0  0  0 
 13 14  1  0  0  0  0 
 14 15  2  0  0  0  0 
 10 15  1  0  0  0  0 
 15 16  1  0  0  0  0 
 16 17  1  0  0  0  0 
 17 18  2  0  0  0  0 
 18 19  1  0  0  0  0 
 19 20  2  0  0  0  0 
 20 21  1  0  0  0  0 
 21 22  2  0  0  0  0 
 17 22  1  0  0  0  0 
  8 22  1  0  0  0  0 
 20 23  1  0  0  0  0 
M  CHG  1   2   1
M  END
> <Mol Weight>
327.808

> <Formula>
C18H18ClN3O

> <CdId>
317

> <RCDK_LipinskiFailures>
0

> <source>
FDA

> <name>
Loxapine

> <ABUNDANCE>
98.4% at pH 4.8

> <BLABBER_CHARGE>
1

> <inchi>
1S/C18H18ClN3O/c1-21-8-10-22(11-9-21)18-14-12-13(19)6-7-16(14)23-17-5-3-2-4-15(17)20-18/h2-7,12H,8-11H2,1H3

> <activity>
0

$$$$

  CDK     0331111707

 26 28  0  0  0  0  0  0  0  0999 V2000
   -1.4289   -0.0000    0.0000 C   0  0  0  0  0  4  0  0  0  0  0  0
   -0.7145   -0.4125    0.0000 C   0  0  0  0  0  4  0  0  0  0  0  0
    0.0000   -0.0000    0.0000 C   0  0  0  0  0  4  0  0  0  0  0  0
   -0.7145   -1.2375    0.0000 N   0  0  0  0  0  4  0  0  0  0  0  0
    0.0000   -1.6500    0.0000 C   0  0  0  0  0  4  0  0  0  0  0  0
    0.0000   -2.4750    0.0000 C   0  0  0  0  0  4  0  0  0  0  0  0
   -0.7145   -2.8875    0.0000 C   0  0  0  0  0  4  0  0  0  0  0  0
   -1.4289   -2.4750    0.0000 C   0  0  0  0  0  4  0  0  0  0  0  0
   -1.4289   -1.6500    0.0000 C   0  0  0  0  0  4  0  0  0  0  0  0
   -0.7145   -3.7125    0.0000 N   0  0  0  0  0  3  0  0  0  0  0  0
   -1.4289   -4.1250    0.0000 C   0  0  0  0  0  4  0  0  0  0  0  0
   -2.1434   -3.7125    0.0000 O   0  0  0  0  0  2  0  0  0  0  0  0
   -1.4289   -4.9500    0.0000 C   0  0  0  0  0  4  0  0  0  0  0  0
   -2.1434   -5.3625    0.0000 C   0  0  0  0  0  4  0  0  0  0  0  0
   -2.1434   -6.1875    0.0000 C   0  0  0  0  0  4  0  0  0  0  0  0
   -2.8579   -6.6000    0.0000 C   0  0  0  0  0  4  0  0  0  0  0  0
   -3.5724   -6.1875    0.0000 C   0  0  0  0  0  4  0  0  0  0  0  0
   -3.5724   -5.3625    0.0000 C   0  0  0  0  0  4  0  0  0  0  0  0
   -2.8579   -4.9500    0.0000 C   0  0  0  0  0  4  0  0  0  0  0  0
   -0.0000   -4.1250    0.0000 C   0  0  0  0  0  4  0  0  0  0  0  0
    0.7145   -3.7125    0.0000 C   0  0  0  0  0  4  0  0  0  0  0  0
    1.4289   -4.1250    0.0000 C   0  0  0  0  0  4  0  0  0  0  0  0
    1.4289   -4.9500    0.0000 C   0  0  0  0  0  4  0  0  0  0  0  0
    0.7145   -5.3625    0.0000 C   0  0  0  0  0  4  0  0  0  0  0  0
   -0.0000   -4.9500    0.0000 C   0  0  0  0  0  4  0  0  0  0  0  0
    2.1434   -5.3625    0.0000 Cl  0  0  0  0  0  1  0  0  0  0  0  0
  1  2  1  0  0  0  0 
  2  3  1  0  0  0  0 
  2  4  1  0  0  0  0 
  4  5  1  0  0  0  0 
  5  6  1  0  0  0  0 
  6  7  1  0  0  0  0 
  7  8  1  0  0  0  0 
  8  9  1  0  0  0  0 
  4  9  1  0  0  0  0 
  7 10  1  0  0  0  0 
 10 11  1  0  0  0  0 
 11 12  2  0  0  0  0 
 11 13  1  0  0  0  0 
 13 14  1  0  0  0  0 
 14 15  2  0  0  0  0 
 15 16  1  0  0  0  0 
 16 17  2  0  0  0  0 
 17 18  1  0  0  0  0 
 18 19  2  0  0  0  0 
 14 19  1  0  0  0  0 
 10 20  1  0  0  0  0 
 20 21  2  0  0  0  0 
 21 22  1  0  0  0  0 
 22 23  2  0  0  0  0 
 23 24  1  0  0  0  0 
 24 25  2  0  0  0  0 
 20 25  1  0  0  0  0 
 23 26  1  0  0  0  0 
M  CHG  1   4   1
M  END
> <Mol Weight>
370.916

> <Formula>
C22H27ClN2O

> <CdId>
316

> <RCDK_LipinskiFailures>
0

> <source>
FDA

> <name>
Lorcainide

> <ABUNDANCE>
100% at pH 4.8

> <BLABBER_CHARGE>
1

> <inchi>
1S/C22H27ClN2O/c1-17(2)24-14-12-21(13-15-24)25(20-10-8-19(23)9-11-20)22(26)16-18-6-4-3-5-7-18/h3-11,17,21H,12-16H2,1-2H3

> <activity>
0

$$$$

  CDK     0331111707

 21 23  0  0  0  0  0  0  0  0999 V2000
    2.5552    0.2525    0.0000 O   0  0  0  0  0  2  0  0  0  0  0  0
    2.0408    0.8975    0.0000 C   0  0  0  0  0  4  0  0  0  0  0  0
    1.2365    0.7139    0.0000 N   0  0  0  0  0  3  0  0  0  0  0  0
    0.5915    1.2283    0.0000 C   0  0  0  0  0  4  0  0  0  0  0  0
   -0.1230    0.8158    0.0000 C   0  0  0  0  0  4  0  0  0  0  0  0
   -0.8374    1.2283    0.0000 C   0  0  0  0  0  4  0  0  0  0  0  0
   -0.8374    2.0533    0.0000 C   0  0  0  0  0  4  0  0  0  0  0  0
   -0.1230    2.4658    0.0000 C   0  0  0  0  0  4  0  0  0  0  0  0
    0.5915    2.0533    0.0000 C   0  0  0  0  0  4  0  0  0  0  0  0
    1.2365    2.5677    0.0000 C   0  0  0  0  0  4  0  0  0  0  0  0
    2.0408    2.3841    0.0000 N   0  0  0  0  0  3  0  0  0  0  0  0
    2.3988    1.6408    0.0000 C   0  0  0  0  0  4  0  0  0  0  0  0
    3.2238    1.6408    0.0000 O   0  0  0  0  0  2  0  0  0  0  0  0
    1.0529    3.3720    0.0000 C   0  0  0  0  0  4  0  0  0  0  0  0
    0.2646    3.6152    0.0000 C   0  0  0  0  0  4  0  0  0  0  0  0
    0.0810    4.4195    0.0000 C   0  0  0  0  0  4  0  0  0  0  0  0
    0.6858    4.9806    0.0000 C   0  0  0  0  0  4  0  0  0  0  0  0
    1.4741    4.7374    0.0000 C   0  0  0  0  0  4  0  0  0  0  0  0
    1.6577    3.9331    0.0000 C   0  0  0  0  0  4  0  0  0  0  0  0
    2.4461    3.6899    0.0000 Cl  0  0  0  0  0  1  0  0  0  0  0  0
   -1.5519    2.4658    0.0000 Cl  0  0  0  0  0  1  0  0  0  0  0  0
  1  2  2  0  0  0  0 
  2  3  1  0  0  0  0 
  3  4  1  0  0  0  0 
  4  5  2  0  0  0  0 
  5  6  1  0  0  0  0 
  6  7  2  0  0  0  0 
  7  8  1  0  0  0  0 
  8  9  2  0  0  0  0 
  4  9  1  0  0  0  0 
  9 10  1  0  0  0  0 
 10 11  2  0  0  0  0 
 11 12  1  0  0  0  0 
  2 12  1  0  0  0  0 
 12 13  1  0  0  0  0 
 10 14  1  0  0  0  0 
 14 15  2  0  0  0  0 
 15 16  1  0  0  0  0 
 16 17  2  0  0  0  0 
 17 18  1  0  0  0  0 
 18 19  2  0  0  0  0 
 14 19  1  0  0  0  0 
 19 20  1  0  0  0  0 
  7 21  1  0  0  0  0 
M  END
> <Mol Weight>
321.158

> <Formula>
C15H10Cl2N2O2

> <CdId>
315

> <RCDK_LipinskiFailures>
0

> <source>
FDA

> <name>
Lorazepam

> <ABUNDANCE>
99.96% at pH 4.8

> <BLABBER_CHARGE>


> <inchi>
1S/C15H10Cl2N2O2/c16-8-5-6-12-10(7-8)13(19-15(21)14(20)18-12)9-3-1-2-4-11(9)17/h1-7,15,21H,(H,18,20)

> <activity>
0

$$$$

  CDK     0331111707

 25 27  0  0  0  0  0  0  0  0999 V2000
    1.4289   -1.6500    0.0000 C   0  0  0  0  0  4  0  0  0  0  0  0
    1.4289   -2.4750    0.0000 N   0  0  0  0  0  4  0  0  0  0  0  0
    2.1434   -2.8875    0.0000 C   0  0  0  0  0  4  0  0  0  0  0  0
    2.1434   -3.7125    0.0000 C   0  0  0  0  0  4  0  0  0  0  0  0
    1.4289   -4.1250    0.0000 C   0  0  0  0  0  4  0  0  0  0  0  0
    0.7145   -3.7125    0.0000 C   0  0  0  0  0  4  0  0  0  0  0  0
    0.7145   -2.8875    0.0000 C   0  0  0  0  0  4  0  0  0  0  0  0
    0.0000   -2.4750    0.0000 C   0  0  0  0  0  4  0  0  0  0  0  0
   -0.7145   -2.8875    0.0000 C   0  0  0  0  0  4  0  0  0  0  0  0
   -0.7145   -3.7125    0.0000 O   0  0  0  0  0  2  0  0  0  0  0  0
   -1.4289   -2.4750    0.0000 C   0  0  0  0  0  4  0  0  0  0  0  0
   -2.1434   -2.8875    0.0000 C   0  0  0  0  0  4  0  0  0  0  0  0
   -2.8579   -2.4750    0.0000 C   0  0  0  0  0  4  0  0  0  0  0  0
   -2.8579   -1.6500    0.0000 C   0  0  0  0  0  4  0  0  0  0  0  0
   -2.1434   -1.2375    0.0000 C   0  0  0  0  0  4  0  0  0  0  0  0
   -1.4289   -1.6500    0.0000 C   0  0  0  0  0  4  0  0  0  0  0  0
    2.8579   -2.4750    0.0000 C   0  0  0  0  0  4  0  0  0  0  0  0
    2.8579   -1.6500    0.0000 C   0  0  0  0  0  4  0  0  0  0  0  0
    2.1434   -1.2375    0.0000 O   0  0  0  0  0  2  0  0  0  0  0  0
    3.5724   -1.2375    0.0000 C   0  0  0  0  0  4  0  0  0  0  0  0
    3.5724   -0.4125    0.0000 C   0  0  0  0  0  4  0  0  0  0  0  0
    4.2868   -0.0000    0.0000 C   0  0  0  0  0  4  0  0  0  0  0  0
    5.0013   -0.4125    0.0000 C   0  0  0  0  0  4  0  0  0  0  0  0
    5.0013   -1.2375    0.0000 C   0  0  0  0  0  4  0  0  0  0  0  0
    4.2868   -1.6500    0.0000 C   0  0  0  0  0  4  0  0  0  0  0  0
  1  2  1  0  0  0  0 
  2  3  1  0  0  0  0 
  3  4  1  0  0  0  0 
  4  5  1  0  0  0  0 
  5  6  1  0  0  0  0 
  6  7  1  0  0  0  0 
  2  7  1  0  0  0  0 
  7  8  1  0  0  0  0 
  8  9  1  0  0  0  0 
  9 10  1  0  0  0  0 
  9 11  1  0  0  0  0 
 11 12  2  0  0  0  0 
 12 13  1  0  0  0  0 
 13 14  2  0  0  0  0 
 14 15  1  0  0  0  0 
 15 16  2  0  0  0  0 
 11 16  1  0  0  0  0 
  3 17  1  0  0  0  0 
 17 18  1  0  0  0  0 
 18 19  2  0  0  0  0 
 18 20  1  0  0  0  0 
 20 21  2  0  0  0  0 
 21 22  1  0  0  0  0 
 22 23  2  0  0  0  0 
 23 24  1  0  0  0  0 
 24 25  2  0  0  0  0 
 20 25  1  0  0  0  0 
M  CHG  1   2   1
M  END
> <Mol Weight>
337.4553

> <Formula>
C22H27NO2

> <CdId>
313

> <RCDK_LipinskiFailures>
0

> <source>
FDA

> <name>
Lobeline

> <ABUNDANCE>
99.99% at pH 4.8

> <BLABBER_CHARGE>
1

> <inchi>
1S/C22H27NO2/c1-23-19(15-21(24)17-9-4-2-5-10-17)13-8-14-20(23)16-22(25)18-11-6-3-7-12-18/h2-7,9-12,19-21,24H,8,13-16H2,1H3

> <activity>
0

$$$$

  CDK     0331111707

 26 27  0  0  0  0  0  0  0  0999 V2000
    2.7144   -2.6760    0.0000 C   0  0  0  0  0  4  0  0  0  0  0  0
    3.0747   -3.4182    0.0000 C   0  0  0  0  0  4  0  0  0  0  0  0
    2.6121   -4.1013    0.0000 C   0  0  0  0  0  4  0  0  0  0  0  0
    1.7892   -4.0422    0.0000 O   0  0  0  0  0  2  0  0  0  0  0  0
    1.4289   -3.3000    0.0000 C   0  0  0  0  0  4  0  0  0  0  0  0
    0.6061   -3.2409    0.0000 C   0  0  0  0  0  4  0  0  0  0  0  0
    1.8915   -2.6169    0.0000 O   0  0  0  0  0  2  0  0  0  0  0  0
    2.9724   -4.8434    0.0000 C   0  0  0  0  0  4  0  0  0  0  0  0
    3.7146   -4.4832    0.0000 C   0  0  0  0  0  4  0  0  0  0  0  0
    3.7736   -3.6603    0.0000 C   0  0  0  0  0  4  0  0  0  0  0  0
    3.2669   -3.0092    0.0000 C   0  0  0  0  0  4  0  0  0  0  0  0
    4.5158   -3.3000    0.0000 N   0  0  0  0  0  4  0  0  0  0  0  0
    4.5749   -2.4771    0.0000 C   0  0  0  0  0  4  0  0  0  0  0  0
    5.1989   -3.7626    0.0000 C   0  0  0  0  0  4  0  0  0  0  0  0
    2.2302   -5.2037    0.0000 C   0  0  0  0  0  4  0  0  0  0  0  0
    2.1711   -6.0266    0.0000 C   0  0  0  0  0  4  0  0  0  0  0  0
    1.4289   -6.3869    0.0000 C   0  0  0  0  0  4  0  0  0  0  0  0
    0.7458   -5.9243    0.0000 C   0  0  0  0  0  4  0  0  0  0  0  0
    0.8049   -5.1014    0.0000 C   0  0  0  0  0  4  0  0  0  0  0  0
    1.5471   -4.7411    0.0000 C   0  0  0  0  0  4  0  0  0  0  0  0
    3.3327   -5.5856    0.0000 C   0  0  0  0  0  4  0  0  0  0  0  0
    4.1555   -5.6447    0.0000 C   0  0  0  0  0  4  0  0  0  0  0  0
    4.5158   -6.3869    0.0000 C   0  0  0  0  0  4  0  0  0  0  0  0
    4.0532   -7.0700    0.0000 C   0  0  0  0  0  4  0  0  0  0  0  0
    3.2303   -7.0109    0.0000 C   0  0  0  0  0  4  0  0  0  0  0  0
    2.8700   -6.2687    0.0000 C   0  0  0  0  0  4  0  0  0  0  0  0
  1  2  1  0  0  0  0 
  2  3  1  0  0  0  0 
  3  4  1  0  0  0  0 
  4  5  1  0  0  0  0 
  5  6  1  0  0  0  0 
  5  7  2  0  0  0  0 
  3  8  1  0  0  0  0 
  8  9  1  0  0  0  0 
  9 10  1  0  0  0  0 
 10 11  1  0  0  0  0 
 10 12  1  0  0  0  0 
 12 13  1  0  0  0  0 
 12 14  1  0  0  0  0 
  8 15  1  0  0  0  0 
 15 16  2  0  0  0  0 
 16 17  1  0  0  0  0 
 17 18  2  0  0  0  0 
 18 19  1  0  0  0  0 
 19 20  2  0  0  0  0 
 15 20  1  0  0  0  0 
  8 21  1  0  0  0  0 
 21 22  2  0  0  0  0 
 22 23  1  0  0  0  0 
 23 24  2  0  0  0  0 
 24 25  1  0  0  0  0 
 25 26  2  0  0  0  0 
 21 26  1  0  0  0  0 
M  CHG  1  12   1
M  END
> <Mol Weight>
353.4977

> <Formula>
C23H31NO2

> <CdId>
310

> <RCDK_LipinskiFailures>
0

> <source>
FDA

> <name>
Levomethadyl acetate

> <ABUNDANCE>
99.99% at pH 4.8

> <BLABBER_CHARGE>
1

> <inchi>
1S/C23H31NO2/c1-6-22(26-19(3)25)23(17-18(2)24(4)5,20-13-9-7-10-14-20)21-15-11-8-12-16-21/h7-16,18,22H,6,17H2,1-5H3

> <activity>
0

$$$$

  CDK     0331111707

 26 29  0  0  0  0  0  0  0  0999 V2000
    3.5724   -2.8875    0.0000 C   0  0  0  0  0  4  0  0  0  0  0  0
    2.8579   -2.4750    0.0000 C   0  0  0  0  0  4  0  0  0  0  0  0
    2.1434   -2.8875    0.0000 C   0  0  0  0  0  4  0  0  0  0  0  0
    1.4289   -2.4750    0.0000 O   0  0  0  0  0  2  0  0  0  0  0  0
    1.4289   -1.6500    0.0000 C   0  0  0  0  0  4  0  0  0  0  0  0
    0.7145   -1.2375    0.0000 C   0  0  0  0  0  4  0  0  0  0  0  0
    0.7145   -0.4125    0.0000 C   0  0  0  0  0  4  0  0  0  0  0  0
    0.0000    0.0000    0.0000 F   0  0  0  0  0  1  0  0  0  0  0  0
    1.4289   -0.0000    0.0000 C   0  0  0  0  0  4  0  0  0  0  0  0
    2.1434   -0.4125    0.0000 C   0  0  0  0  0  4  0  0  0  0  0  0
    2.8579    0.0000    0.0000 C   0  0  0  0  0  4  0  0  0  0  0  0
    2.8579    0.8250    0.0000 O   0  0  0  0  0  2  0  0  0  0  0  0
    3.5724   -0.4125    0.0000 C   0  0  0  0  0  4  0  0  0  0  0  0
    3.5724   -1.2375    0.0000 C   0  0  0  0  0  4  0  0  0  0  0  0
    2.8579   -1.6500    0.0000 N   0  0  0  0  0  3  0  0  0  0  0  0
    2.1434   -1.2375    0.0000 C   0  0  0  0  0  4  0  0  0  0  0  0
    4.2868   -0.0000    0.0000 C   0  0  0  0  0  4  0  0  0  0  0  0
    5.0013   -0.4125    0.0000 O   0  0  0  0  0  2  0  0  0  0  0  0
    4.2868    0.8250    0.0000 O   0  0  0  0  0  2  0  0  0  0  0  0
    0.0000   -1.6500    0.0000 N   0  0  0  0  0  3  0  0  0  0  0  0
    0.0000   -2.4750    0.0000 C   0  0  0  0  0  4  0  0  0  0  0  0
   -0.7145   -2.8875    0.0000 C   0  0  0  0  0  4  0  0  0  0  0  0
   -1.4289   -2.4750    0.0000 N   0  0  0  0  0  4  0  0  0  0  0  0
   -2.1434   -2.8875    0.0000 C   0  0  0  0  0  4  0  0  0  0  0  0
   -1.4289   -1.6500    0.0000 C   0  0  0  0  0  4  0  0  0  0  0  0
   -0.7145   -1.2375    0.0000 C   0  0  0  0  0  4  0  0  0  0  0  0
  1  2  1  0  0  0  0 
  2  3  1  0  0  0  0 
  3  4  1  0  0  0  0 
  4  5  1  0  0  0  0 
  5  6  2  0  0  0  0 
  6  7  1  0  0  0  0 
  7  8  1  0  0  0  0 
  7  9  2  0  0  0  0 
  9 10  1  0  0  0  0 
 10 11  1  0  0  0  0 
 11 12  2  0  0  0  0 
 11 13  1  0  0  0  0 
 13 14  2  0  0  0  0 
 14 15  1  0  0  0  0 
  2 15  1  0  0  0  0 
 15 16  1  0  0  0  0 
 10 16  2  0  0  0  0 
  5 16  1  0  0  0  0 
 13 17  1  0  0  0  0 
 17 18  2  0  0  0  0 
 17 19  1  0  0  0  0 
  6 20  1  0  0  0  0 
 20 21  1  0  0  0  0 
 21 22  1  0  0  0  0 
 22 23  1  0  0  0  0 
 23 24  1  0  0  0  0 
 23 25  1  0  0  0  0 
 25 26  1  0  0  0  0 
 20 26  1  0  0  0  0 
M  CHG  1  23   1
M  END
> <Mol Weight>
361.3675

> <Formula>
C18H20FN3O4

> <CdId>
309

> <RCDK_LipinskiFailures>
0

> <source>
FDA

> <name>
Levofloxacin

> <ABUNDANCE>
84.13% at pH 4.8

> <BLABBER_CHARGE>
1

> <inchi>
1S/C18H20FN3O4/c1-10-9-26-17-14-11(16(23)12(18(24)25)8-22(10)14)7-13(19)15(17)21-5-3-20(2)4-6-21/h7-8,10H,3-6,9H2,1-2H3,(H,24,25)

> <activity>
0

$$$$

  CDK     0331111707

 11 10  0  0  0  0  0  0  0  0999 V2000
    1.7605    1.0164    0.0000 C   0  0  0  0  0  4  0  0  0  0  0  0
    2.4750    1.4289    0.0000 N   0  0  0  0  0  4  0  0  0  0  0  0
    2.8875    0.7145    0.0000 C   0  0  0  0  0  4  0  0  0  0  0  0
    2.0625    2.1434    0.0000 C   0  0  0  0  0  4  0  0  0  0  0  0
    3.1895    1.8414    0.0000 C   0  0  0  0  0  4  0  0  0  0  0  0
    3.9039    1.4289    0.0000 C   0  0  0  0  0  4  0  0  0  0  0  0
    3.9039    0.6039    0.0000 O   0  0  0  0  0  2  0  0  0  0  0  0
    4.6184    1.8414    0.0000 C   0  0  0  0  0  4  0  0  0  0  0  0
    5.3329    1.4289    0.0000 C   0  0  0  0  0  4  0  0  0  0  0  0
    6.0474    1.8414    0.0000 O   0  0  0  0  0  2  0  0  0  0  0  0
    5.3329    0.6039    0.0000 O   0  0  0  0  0  1  0  0  0  0  0  0
  1  2  1  0  0  0  0 
  2  3  1  0  0  0  0 
  2  4  1  0  0  0  0 
  2  5  1  0  0  0  0 
  5  6  1  0  0  0  0 
  6  7  1  0  0  0  0 
  6  8  1  0  0  0  0 
  8  9  1  0  0  0  0 
  9 10  2  0  0  0  0 
  9 11  1  0  0  0  0 
M  CHG  1   2   1
M  CHG  1  11  -1
M  END
> <Mol Weight>
162.2068

> <Formula>
C7H16NO3

> <CdId>
308

> <RCDK_LipinskiFailures>
0

> <source>
FDA

> <name>
Levocarnitine

> <ABUNDANCE>
89.16% at pH 4.8

> <BLABBER_CHARGE>
0

> <inchi>
1S/C7H15NO3/c1-8(2,3)5-6(9)4-7(10)11/h6,9H,4-5H2,1-3H3/p+1

> <activity>
0

$$$$

  CDK     0331111707

 12 12  0  0  0  0  0  0  0  0999 V2000
    2.9760    1.9462    0.0000 C   0  0  0  0  0  4  0  0  0  0  0  0
    2.1913    1.6913    0.0000 C   0  0  0  0  0  4  0  0  0  0  0  0
    2.0198    0.8843    0.0000 C   0  0  0  0  0  4  0  0  0  0  0  0
    2.6329    0.3323    0.0000 C   0  0  0  0  0  4  0  0  0  0  0  0
    2.4614   -0.4747    0.0000 N   0  0  0  0  0  3  0  0  0  0  0  0
    3.4175    0.5872    0.0000 O   0  0  0  0  0  2  0  0  0  0  0  0
    1.2352    0.6294    0.0000 N   0  0  0  0  0  3  0  0  0  0  0  0
    0.9803   -0.1553    0.0000 C   0  0  0  0  0  4  0  0  0  0  0  0
    0.1553   -0.1553    0.0000 C   0  0  0  0  0  4  0  0  0  0  0  0
   -0.0997    0.6294    0.0000 C   0  0  0  0  0  4  0  0  0  0  0  0
    0.5678    1.1143    0.0000 C   0  0  0  0  0  4  0  0  0  0  0  0
    0.5678    1.9393    0.0000 O   0  0  0  0  0  2  0  0  0  0  0  0
  1  2  1  0  0  0  0 
  2  3  1  0  0  0  0 
  3  4  1  0  0  0  0 
  4  5  1  0  0  0  0 
  4  6  2  0  0  0  0 
  3  7  1  0  0  0  0 
  7  8  1  0  0  0  0 
  8  9  1  0  0  0  0 
  9 10  1  0  0  0  0 
 10 11  1  0  0  0  0 
  7 11  1  0  0  0  0 
 11 12  2  0  0  0  0 
M  END
> <Mol Weight>
170.209

> <Formula>
C8H14N2O2

> <CdId>
307

> <RCDK_LipinskiFailures>
0

> <source>
FDA

> <name>
Levetiracetam

> <ABUNDANCE>
100% at pH 4.8

> <BLABBER_CHARGE>


> <inchi>
1S/C8H14N2O2/c1-2-6(8(9)12)10-5-3-4-7(10)11/h6H,2-5H2,1H3,(H2,9,12)

> <activity>
0

$$$$

  CDK     0331111707

 14 16  0  0  0  0  0  0  0  0999 V2000
   -1.6904   -0.2549    0.0000 C   0  0  0  0  0  4  0  0  0  0  0  0
   -1.2779    0.4595    0.0000 C   0  0  0  0  0  4  0  0  0  0  0  0
   -0.4529    0.4595    0.0000 C   0  0  0  0  0  4  0  0  0  0  0  0
   -0.0404   -0.2549    0.0000 C   0  0  0  0  0  4  0  0  0  0  0  0
   -0.4529   -0.9694    0.0000 C   0  0  0  0  0  4  0  0  0  0  0  0
   -1.2779   -0.9694    0.0000 C   0  0  0  0  0  4  0  0  0  0  0  0
    0.7846   -0.2549    0.0000 C   0  0  0  0  0  4  0  0  0  0  0  0
    1.2695    0.4125    0.0000 C   0  0  0  0  0  4  0  0  0  0  0  0
    2.0542    0.1576    0.0000 N   0  0  0  0  0  3  0  0  0  0  0  0
    2.8388    0.4125    0.0000 C   0  0  0  0  0  4  0  0  0  0  0  0
    3.3237   -0.2549    0.0000 C   0  0  0  0  0  4  0  0  0  0  0  0
    2.8388   -0.9224    0.0000 S   0  0  0  0  0  2  0  0  0  0  0  0
    2.0542   -0.6674    0.0000 C   0  0  0  0  0  4  0  0  0  0  0  0
    1.2695   -0.9224    0.0000 N   0  0  0  0  0  4  0  0  0  0  0  0
  1  2  2  0  0  0  0 
  2  3  1  0  0  0  0 
  3  4  2  0  0  0  0 
  4  5  1  0  0  0  0 
  5  6  2  0  0  0  0 
  1  6  1  0  0  0  0 
  4  7  1  0  0  0  0 
  7  8  1  0  0  0  0 
  8  9  1  0  0  0  0 
  9 10  1  0  0  0  0 
 10 11  1  0  0  0  0 
 11 12  1  0  0  0  0 
 12 13  1  0  0  0  0 
  9 13  1  0  0  0  0 
 13 14  2  0  0  0  0 
  7 14  1  0  0  0  0 
M  CHG  1  14   1
M  END
> <Mol Weight>
204.291

> <Formula>
C11H12N2S

> <CdId>
306

> <RCDK_LipinskiFailures>
0

> <source>
FDA

> <name>
Levamisole

> <ABUNDANCE>
99.91% at pH 4.8

> <BLABBER_CHARGE>
1

> <inchi>
1S/C11H12N2S/c1-2-4-9(5-3-1)10-8-13-6-7-14-11(13)12-10/h1-5,10H,6-8H2

> <activity>
0

$$$$

  CDK     0331111707

  9  8  0  0  0  0  0  0  0  0999 V2000
   -0.1914    0.7145    0.0000 C   0  0  0  0  0  4  0  0  0  0  0  0
    0.5230    1.1270    0.0000 C   0  0  0  0  0  4  0  0  0  0  0  0
    0.5230    1.9520    0.0000 C   0  0  0  0  0  4  0  0  0  0  0  0
    1.2375    0.7145    0.0000 C   0  0  0  0  0  4  0  0  0  0  0  0
    1.9520    1.1270    0.0000 C   0  0  0  0  0  4  0  0  0  0  0  0
    1.9520    1.9520    0.0000 N   0  0  0  0  0  4  0  0  0  0  0  0
    2.6664    0.7145    0.0000 C   0  0  0  0  0  4  0  0  0  0  0  0
    3.3809    1.1270    0.0000 O   0  0  0  0  0  2  0  0  0  0  0  0
    2.6664   -0.1105    0.0000 O   0  0  0  0  0  1  0  0  0  0  0  0
  1  2  1  0  0  0  0 
  2  3  1  0  0  0  0 
  2  4  1  0  0  0  0 
  4  5  1  0  0  0  0 
  5  6  1  0  0  0  0 
  5  7  1  0  0  0  0 
  7  8  2  0  0  0  0 
  7  9  1  0  0  0  0 
M  CHG  1   6   1
M  CHG  1   9  -1
M  END
> <Mol Weight>
131.1729

> <Formula>
C6H13NO2

> <CdId>
305

> <RCDK_LipinskiFailures>
0

> <source>
FDA

> <name>
Leucine

> <ABUNDANCE>
99.54% at pH 4.8

> <BLABBER_CHARGE>
0

> <inchi>
1S/C6H13NO2/c1-4(2)3-5(7)6(8)9/h4-5H,3,7H2,1-2H3,(H,8,9)

> <activity>
0

$$$$

  CDK     0331111707

 10  9  0  0  0  0  0  0  0  0999 V2000
    1.0461    1.4289    0.0000 C   0  0  0  0  0  4  0  0  0  0  0  0
    1.7605    1.8414    0.0000 C   0  0  0  0  0  4  0  0  0  0  0  0
    2.4750    1.4289    0.0000 S   0  0  0  0  0  2  0  0  0  0  0  0
    3.1895    1.8414    0.0000 C   0  0  0  0  0  4  0  0  0  0  0  0
    3.9039    1.4289    0.0000 C   0  0  0  0  0  4  0  0  0  0  0  0
    4.6184    1.8414    0.0000 C   0  0  0  0  0  4  0  0  0  0  0  0
    4.6184    2.6664    0.0000 N   0  0  0  0  0  4  0  0  0  0  0  0
    5.3329    1.4289    0.0000 C   0  0  0  0  0  4  0  0  0  0  0  0
    6.0474    1.8414    0.0000 O   0  0  0  0  0  2  0  0  0  0  0  0
    5.3329    0.6039    0.0000 O   0  0  0  0  0  1  0  0  0  0  0  0
  1  2  1  0  0  0  0 
  2  3  1  0  0  0  0 
  3  4  1  0  0  0  0 
  4  5  1  0  0  0  0 
  5  6  1  0  0  0  0 
  6  7  1  0  0  0  0 
  6  8  1  0  0  0  0 
  8  9  2  0  0  0  0 
  8 10  1  0  0  0  0 
M  CHG  1   7   1
M  CHG  1  10  -1
M  END
> <Mol Weight>
163.238

> <Formula>
C6H13NO2S

> <CdId>
304

> <RCDK_LipinskiFailures>
0

> <source>
BYLER

> <name>
(l)-ethionine

> <ABUNDANCE>
99.61% at pH 4.8

> <BLABBER_CHARGE>
0

> <inchi>
1S/C6H13NO2S/c1-2-10-4-3-5(7)6(8)9/h5H,2-4,7H2,1H3,(H,8,9)

> <activity>
0

$$$$

  CDK     0331111707

 19 20  0  0  0  0  0  0  0  0999 V2000
    1.4289   -1.6500    0.0000 C   0  0  0  0  0  4  0  0  0  0  0  0
    1.4289   -2.4750    0.0000 C   0  0  0  0  0  4  0  0  0  0  0  0
    2.0964   -2.9599    0.0000 O   0  0  0  0  0  2  0  0  0  0  0  0
    1.8414   -3.7445    0.0000 N   0  0  0  0  0  3  0  0  0  0  0  0
    1.0164   -3.7445    0.0000 C   0  0  0  0  0  4  0  0  0  0  0  0
    0.7615   -2.9599    0.0000 C   0  0  0  0  0  4  0  0  0  0  0  0
   -0.0231   -2.7050    0.0000 C   0  0  0  0  0  4  0  0  0  0  0  0
   -0.1946   -1.8980    0.0000 O   0  0  0  0  0  2  0  0  0  0  0  0
   -0.6362   -3.2570    0.0000 N   0  0  0  0  0  3  0  0  0  0  0  0
   -1.4208   -3.0021    0.0000 C   0  0  0  0  0  4  0  0  0  0  0  0
   -2.0339   -3.5541    0.0000 C   0  0  0  0  0  4  0  0  0  0  0  0
   -2.8186   -3.2992    0.0000 C   0  0  0  0  0  4  0  0  0  0  0  0
   -2.9901   -2.4922    0.0000 C   0  0  0  0  0  4  0  0  0  0  0  0
   -2.3770   -1.9402    0.0000 C   0  0  0  0  0  4  0  0  0  0  0  0
   -1.5924   -2.1951    0.0000 C   0  0  0  0  0  4  0  0  0  0  0  0
   -3.7747   -2.2373    0.0000 C   0  0  0  0  0  4  0  0  0  0  0  0
   -4.5593   -1.9823    0.0000 F   0  0  0  0  0  1  0  0  0  0  0  0
   -3.5198   -1.4526    0.0000 F   0  0  0  0  0  1  0  0  0  0  0  0
   -4.0296   -3.0219    0.0000 F   0  0  0  0  0  1  0  0  0  0  0  0
  1  2  1  0  0  0  0 
  2  3  1  0  0  0  0 
  3  4  1  0  0  0  0 
  4  5  2  0  0  0  0 
  5  6  1  0  0  0  0 
  2  6  2  0  0  0  0 
  6  7  1  0  0  0  0 
  7  8  2  0  0  0  0 
  7  9  1  0  0  0  0 
  9 10  1  0  0  0  0 
 10 11  2  0  0  0  0 
 11 12  1  0  0  0  0 
 12 13  2  0  0  0  0 
 13 14  1  0  0  0  0 
 14 15  2  0  0  0  0 
 10 15  1  0  0  0  0 
 13 16  1  0  0  0  0 
 16 17  1  0  0  0  0 
 16 18  1  0  0  0  0 
 16 19  1  0  0  0  0 
M  END
> <Mol Weight>
270.2073

> <Formula>
C12H9F3N2O2

> <CdId>
303

> <RCDK_LipinskiFailures>
0

> <source>
FDA

> <name>
Leflunomide

> <ABUNDANCE>
100% at pH 4.8

> <BLABBER_CHARGE>


> <inchi>
1S/C12H9F3N2O2/c1-7-10(6-16-19-7)11(18)17-9-4-2-8(3-5-9)12(13,14)15/h2-6H,1H3,(H,17,18)

> <activity>
0

$$$$

  CDK     0331111707

 15 16  0  0  0  0  0  0  0  0999 V2000
    0.7145    6.7661    0.0000 N   0  0  0  0  0  3  0  0  0  0  0  0
    0.7145    5.9411    0.0000 C   0  0  0  0  0  4  0  0  0  0  0  0
    1.4289    5.5286    0.0000 C   0  0  0  0  0  4  0  0  0  0  0  0
    1.4289    4.7036    0.0000 C   0  0  0  0  0  4  0  0  0  0  0  0
    0.7145    4.2911    0.0000 N   0  0  0  0  0  3  0  0  0  0  0  0
    0.0000    4.7036    0.0000 C   0  0  0  0  0  4  0  0  0  0  0  0
   -0.7145    4.2911    0.0000 O   0  0  0  0  0  2  0  0  0  0  0  0
   -0.0000    5.5286    0.0000 N   0  0  0  0  0  3  0  0  0  0  0  0
    0.7145    3.4661    0.0000 C   0  0  0  0  0  4  0  0  0  0  0  0
    1.3819    2.9812    0.0000 C   0  0  0  0  0  4  0  0  0  0  0  0
    1.1270    2.1965    0.0000 S   0  0  0  0  0  2  0  0  0  0  0  0
    0.3020    2.1965    0.0000 C   0  0  0  0  0  4  0  0  0  0  0  0
   -0.1830    1.5291    0.0000 C   0  0  0  0  0  4  0  0  0  0  0  0
    0.1526    0.7754    0.0000 O   0  0  0  0  0  2  0  0  0  0  0  0
    0.0470    2.9812    0.0000 O   0  0  0  0  0  2  0  0  0  0  0  0
  1  2  1  0  0  0  0 
  2  3  1  0  0  0  0 
  3  4  2  0  0  0  0 
  4  5  1  0  0  0  0 
  5  6  1  0  0  0  0 
  6  7  2  0  0  0  0 
  6  8  1  0  0  0  0 
  2  8  2  0  0  0  0 
  5  9  1  0  0  0  0 
  9 10  1  0  0  0  0 
 10 11  1  0  0  0  0 
 11 12  1  0  0  0  0 
 12 13  1  0  0  0  0 
 13 14  1  0  0  0  0 
 12 15  1  0  0  0  0 
  9 15  1  0  0  0  0 
M  END
> <Mol Weight>
229.256

> <Formula>
C8H11N3O3S

> <CdId>
302

> <RCDK_LipinskiFailures>
0

> <source>
FDA

> <name>
Lamivudine

> <ABUNDANCE>
85.71% at pH 4.8

> <BLABBER_CHARGE>


> <inchi>
1S/C8H11N3O3S/c9-5-1-2-11(8(13)10-5)6-4-15-7(3-12)14-6/h1-2,6-7,12H,3-4H2,(H2,9,10,13)

> <activity>
0

$$$$

  CDK     0331111707

  6  5  0  0  0  0  0  0  0  0999 V2000
    0.8250    1.4289    0.0000 C   0  0  0  0  0  4  0  0  0  0  0  0
    1.2375    0.7145    0.0000 C   0  0  0  0  0  4  0  0  0  0  0  0
    2.0625    0.7145    0.0000 O   0  0  0  0  0  2  0  0  0  0  0  0
    0.8250    0.0000    0.0000 C   0  0  0  0  0  4  0  0  0  0  0  0
    1.2375   -0.7145    0.0000 O   0  0  0  0  0  2  0  0  0  0  0  0
    0.0000    0.0000    0.0000 O   0  0  0  0  0  1  0  0  0  0  0  0
  1  2  1  0  0  0  0 
  2  3  1  0  0  0  0 
  2  4  1  0  0  0  0 
  4  5  2  0  0  0  0 
  4  6  1  0  0  0  0 
M  CHG  1   6  -1
M  END
> <Mol Weight>
90.0779

> <Formula>
C3H6O3

> <CdId>
301

> <RCDK_LipinskiFailures>
0

> <source>
FDA

> <name>
Lactic acid

> <ABUNDANCE>
88.41% at pH 4.8

> <BLABBER_CHARGE>
-1

> <inchi>
1S/C3H6O3/c1-2(4)3(5)6/h2,4H,1H3,(H,5,6)

> <activity>
0

$$$$

  CDK     0331111707

 22 25  0  0  0  0  0  0  0  0999 V2000
    3.5723    3.7125    0.0000 C   0  0  0  0  0  4  0  0  0  0  0  0
    3.5631    2.8876    0.0000 N   0  0  0  0  0  4  0  0  0  0  0  0
    4.2729    2.4671    0.0000 C   0  0  0  0  0  4  0  0  0  0  0  0
    4.2637    1.6422    0.0000 C   0  0  0  0  0  4  0  0  0  0  0  0
    3.5447    1.2377    0.0000 C   0  0  0  0  0  4  0  0  0  0  0  0
    2.8349    1.6581    0.0000 C   0  0  0  0  0  4  0  0  0  0  0  0
    2.8441    2.4831    0.0000 C   0  0  0  0  0  4  0  0  0  0  0  0
    3.5354    0.4127    0.0000 C   0  0  0  0  0  4  0  0  0  0  0  0
    4.2747    0.0465    0.0000 C   0  0  0  0  0  4  0  0  0  0  0  0
    4.8857    0.6008    0.0000 C   0  0  0  0  0  4  0  0  0  0  0  0
    5.6713    0.3489    0.0000 C   0  0  0  0  0  4  0  0  0  0  0  0
    5.8459   -0.4575    0.0000 C   0  0  0  0  0  4  0  0  0  0  0  0
    5.2349   -1.0118    0.0000 C   0  0  0  0  0  4  0  0  0  0  0  0
    4.4493   -0.7598    0.0000 C   0  0  0  0  0  4  0  0  0  0  0  0
    3.9277   -1.3991    0.0000 C   0  0  0  0  0  4  0  0  0  0  0  0
    3.1028   -1.3898    0.0000 C   0  0  0  0  0  4  0  0  0  0  0  0
    2.7365   -2.1291    0.0000 O   0  0  0  0  0  2  0  0  0  0  0  0
    2.5956   -0.7391    0.0000 C   0  0  0  0  0  4  0  0  0  0  0  0
    2.7882    0.0631    0.0000 C   0  0  0  0  0  4  0  0  0  0  0  0
    2.0847    0.4941    0.0000 C   0  0  0  0  0  4  0  0  0  0  0  0
    1.4574   -0.0417    0.0000 C   0  0  0  0  0  4  0  0  0  0  0  0
    1.7732   -0.8039    0.0000 S   0  0  0  0  0  2  0  0  0  0  0  0
  1  2  1  0  0  0  0 
  2  3  1  0  0  0  0 
  3  4  1  0  0  0  0 
  4  5  1  0  0  0  0 
  5  6  1  0  0  0  0 
  6  7  1  0  0  0  0 
  2  7  1  0  0  0  0 
  5  8  2  0  0  0  0 
  8  9  1  0  0  0  0 
  9 10  2  0  0  0  0 
 10 11  1  0  0  0  0 
 11 12  2  0  0  0  0 
 12 13  1  0  0  0  0 
 13 14  2  0  0  0  0 
  9 14  1  0  0  0  0 
 14 15  1  0  0  0  0 
 15 16  1  0  0  0  0 
 16 17  2  0  0  0  0 
 16 18  1  0  0  0  0 
 18 19  2  0  0  0  0 
  8 19  1  0  0  0  0 
 19 20  1  0  0  0  0 
 20 21  2  0  0  0  0 
 21 22  1  0  0  0  0 
 18 22  1  0  0  0  0 
M  CHG  1   2   1
M  END
> <Mol Weight>
309.425

> <Formula>
C19H19NOS

> <CdId>
299

> <RCDK_LipinskiFailures>
0

> <source>
FDA

> <name>
Ketotifen

> <ABUNDANCE>
99.98% at pH 4.8

> <BLABBER_CHARGE>
1

> <inchi>
1S/C19H19NOS/c1-20-9-6-13(7-10-20)18-15-5-3-2-4-14(15)12-17(21)19-16(18)8-11-22-19/h2-5,8,11H,6-7,9-10,12H2,1H3

> <activity>
0

$$$$

  CDK     0331111707

 33 35  0  0  0  0  0  0  0  0999 V2000
   -2.8579    0.0000    0.0000 N   0  0  0  0  0  4  0  0  0  0  0  0
   -3.5724   -0.4125    0.0000 C   0  0  0  0  0  4  0  0  0  0  0  0
   -3.5724   -1.2375    0.0000 C   0  0  0  0  0  4  0  0  0  0  0  0
   -4.2868   -1.6500    0.0000 O   0  0  0  0  0  2  0  0  0  0  0  0
   -4.2868   -2.4750    0.0000 C   0  0  0  0  0  4  0  0  0  0  0  0
   -5.0013   -2.8875    0.0000 O   0  0  0  0  0  2  0  0  0  0  0  0
   -5.7158   -2.4750    0.0000 C   0  0  0  0  0  4  0  0  0  0  0  0
   -5.7158   -1.6500    0.0000 C   0  0  0  0  0  4  0  0  0  0  0  0
   -5.0013   -1.2375    0.0000 N   0  0  0  0  0  4  0  0  0  0  0  0
   -6.4302   -1.2375    0.0000 C   0  0  0  0  0  4  0  0  0  0  0  0
   -7.1447   -1.6500    0.0000 C   0  0  0  0  0  4  0  0  0  0  0  0
   -7.8592   -1.2375    0.0000 N   0  0  0  0  0  4  0  0  0  0  0  0
   -7.1447   -2.4750    0.0000 C   0  0  0  0  0  4  0  0  0  0  0  0
   -7.8592   -2.8875    0.0000 O   0  0  0  0  0  2  0  0  0  0  0  0
   -7.8592   -3.7125    0.0000 C   0  0  0  0  0  4  0  0  0  0  0  0
   -7.1447   -4.1250    0.0000 O   0  0  0  0  0  2  0  0  0  0  0  0
   -7.1447   -4.9500    0.0000 C   0  0  0  0  0  4  0  0  0  0  0  0
   -6.4302   -5.3625    0.0000 C   0  0  0  0  0  4  0  0  0  0  0  0
   -5.7158   -4.9500    0.0000 O   0  0  0  0  0  2  0  0  0  0  0  0
   -7.8592   -5.3625    0.0000 C   0  0  0  0  0  4  0  0  0  0  0  0
   -7.8592   -6.1875    0.0000 O   0  0  0  0  0  2  0  0  0  0  0  0
   -8.5737   -4.9500    0.0000 C   0  0  0  0  0  4  0  0  0  0  0  0
   -9.2881   -5.3625    0.0000 N   0  0  0  0  0  4  0  0  0  0  0  0
   -8.5737   -4.1250    0.0000 C   0  0  0  0  0  4  0  0  0  0  0  0
   -9.2881   -3.7125    0.0000 O   0  0  0  0  0  2  0  0  0  0  0  0
   -6.4302   -2.8875    0.0000 C   0  0  0  0  0  4  0  0  0  0  0  0
   -6.4302   -3.7125    0.0000 O   0  0  0  0  0  2  0  0  0  0  0  0
   -3.5724   -2.8875    0.0000 C   0  0  0  0  0  4  0  0  0  0  0  0
   -3.5724   -3.7125    0.0000 N   0  0  0  0  0  4  0  0  0  0  0  0
   -2.8579   -2.4750    0.0000 C   0  0  0  0  0  4  0  0  0  0  0  0
   -2.1434   -2.8875    0.0000 O   0  0  0  0  0  2  0  0  0  0  0  0
   -2.8579   -1.6500    0.0000 C   0  0  0  0  0  4  0  0  0  0  0  0
   -2.1434   -1.2375    0.0000 O   0  0  0  0  0  2  0  0  0  0  0  0
  1  2  1  0  0  0  0 
  2  3  1  0  0  0  0 
  3  4  1  0  0  0  0 
  4  5  1  0  0  0  0 
  5  6  1  0  0  0  0 
  6  7  1  0  0  0  0 
  7  8  1  0  0  0  0 
  8  9  1  0  0  0  0 
  8 10  1  0  0  0  0 
 10 11  1  0  0  0  0 
 11 12  1  0  0  0  0 
 11 13  1  0  0  0  0 
 13 14  1  0  0  0  0 
 14 15  1  0  0  0  0 
 15 16  1  0  0  0  0 
 16 17  1  0  0  0  0 
 17 18  1  0  0  0  0 
 18 19  1  0  0  0  0 
 17 20  1  0  0  0  0 
 20 21  1  0  0  0  0 
 20 22  1  0  0  0  0 
 22 23  1  0  0  0  0 
 22 24  1  0  0  0  0 
 15 24  1  0  0  0  0 
 24 25  1  0  0  0  0 
 13 26  1  0  0  0  0 
  7 26  1  0  0  0  0 
 26 27  1  0  0  0  0 
  5 28  1  0  0  0  0 
 28 29  1  0  0  0  0 
 28 30  1  0  0  0  0 
 30 31  1  0  0  0  0 
 30 32  1  0  0  0  0 
  3 32  1  0  0  0  0 
 32 33  1  0  0  0  0 
M  CHG  1   1   1
M  CHG  1   9   1
M  CHG  1  12   1
M  CHG  1  23   1
M  CHG  1  29   1
M  END
> <Mol Weight>
483.5139

> <Formula>
C18H37N5O10

> <CdId>
297

> <RCDK_LipinskiFailures>
0

> <source>
FDA

> <name>
Kanamycin B

> <ABUNDANCE>
81.46% at pH 4.8

> <BLABBER_CHARGE>
5

> <inchi>
1S/C18H37N5O10/c19-2-6-11(26)12(27)9(23)17(30-6)32-15-4(20)1-5(21)16(14(15)29)33-18-13(28)8(22)10(25)7(3-24)31-18/h4-18,24-29H,1-3,19-23H2

> <activity>
0

$$$$

  CDK     0331111707

 22 23  0  0  0  0  0  0  0  0999 V2000
    2.8579   -4.9500    0.0000 C   0  0  0  0  0  4  0  0  0  0  0  0
    2.8579   -4.1250    0.0000 C   0  0  0  0  0  4  0  0  0  0  0  0
    2.1434   -3.7125    0.0000 C   0  0  0  0  0  4  0  0  0  0  0  0
    1.4289   -4.1250    0.0000 O   0  0  0  0  0  2  0  0  0  0  0  0
    0.7145   -3.7125    0.0000 C   0  0  0  0  0  4  0  0  0  0  0  0
    0.0000   -4.1250    0.0000 C   0  0  0  0  0  4  0  0  0  0  0  0
   -0.7145   -3.7125    0.0000 C   0  0  0  0  0  4  0  0  0  0  0  0
   -0.7145   -2.8875    0.0000 C   0  0  0  0  0  4  0  0  0  0  0  0
    0.0000   -2.4750    0.0000 C   0  0  0  0  0  4  0  0  0  0  0  0
    0.7145   -2.8875    0.0000 C   0  0  0  0  0  4  0  0  0  0  0  0
    3.5724   -3.7125    0.0000 N   0  0  0  0  0  4  0  0  0  0  0  0
    4.2868   -4.1250    0.0000 C   0  0  0  0  0  4  0  0  0  0  0  0
    4.2868   -4.9500    0.0000 C   0  0  0  0  0  4  0  0  0  0  0  0
    5.0013   -3.7125    0.0000 C   0  0  0  0  0  4  0  0  0  0  0  0
    5.0013   -2.8875    0.0000 O   0  0  0  0  0  2  0  0  0  0  0  0
    5.7158   -4.1250    0.0000 C   0  0  0  0  0  4  0  0  0  0  0  0
    6.4302   -3.7125    0.0000 C   0  0  0  0  0  4  0  0  0  0  0  0
    7.1447   -4.1250    0.0000 C   0  0  0  0  0  4  0  0  0  0  0  0
    7.1447   -4.9500    0.0000 C   0  0  0  0  0  4  0  0  0  0  0  0
    7.8592   -5.3625    0.0000 O   0  0  0  0  0  2  0  0  0  0  0  0
    6.4302   -5.3625    0.0000 C   0  0  0  0  0  4  0  0  0  0  0  0
    5.7158   -4.9500    0.0000 C   0  0  0  0  0  4  0  0  0  0  0  0
  1  2  1  0  0  0  0 
  2  3  1  0  0  0  0 
  3  4  1  0  0  0  0 
  4  5  1  0  0  0  0 
  5  6  2  0  0  0  0 
  6  7  1  0  0  0  0 
  7  8  2  0  0  0  0 
  8  9  1  0  0  0  0 
  9 10  2  0  0  0  0 
  5 10  1  0  0  0  0 
  2 11  1  0  0  0  0 
 11 12  1  0  0  0  0 
 12 13  1  0  0  0  0 
 12 14  1  0  0  0  0 
 14 15  1  0  0  0  0 
 14 16  1  0  0  0  0 
 16 17  2  0  0  0  0 
 17 18  1  0  0  0  0 
 18 19  2  0  0  0  0 
 19 20  1  0  0  0  0 
 19 21  1  0  0  0  0 
 21 22  2  0  0  0  0 
 16 22  1  0  0  0  0 
M  CHG  1  11   1
M  END
> <Mol Weight>
301.3801

> <Formula>
C18H23NO3

> <CdId>
294

> <RCDK_LipinskiFailures>
0

> <source>
FDA

> <name>
Isoxsuprine

> <ABUNDANCE>
99.98% at pH 4.8

> <BLABBER_CHARGE>
1

> <inchi>
1S/C18H23NO3/c1-13(12-22-17-6-4-3-5-7-17)19-14(2)18(21)15-8-10-16(20)11-9-15/h3-11,13-14,18-21H,12H2,1-2H3

> <activity>
0

$$$$

  CDK     0331111707

 13 14  0  0  0  0  0  0  0  0999 V2000
    1.0146   -1.7070    0.0000 O   0  0  0  0  0  2  0  0  0  0  0  0
    1.2695   -0.9224    0.0000 C   0  0  0  0  0  4  0  0  0  0  0  0
    0.7846   -0.2549    0.0000 C   0  0  0  0  0  4  0  0  0  0  0  0
    1.2695    0.4125    0.0000 O   0  0  0  0  0  2  0  0  0  0  0  0
    2.0542    0.1576    0.0000 C   0  0  0  0  0  4  0  0  0  0  0  0
    2.8388    0.4125    0.0000 C   0  0  0  0  0  4  0  0  0  0  0  0
    3.3237   -0.2549    0.0000 C   0  0  0  0  0  4  0  0  0  0  0  0
    2.8388   -0.9224    0.0000 O   0  0  0  0  0  2  0  0  0  0  0  0
    2.0542   -0.6674    0.0000 C   0  0  0  0  0  4  0  0  0  0  0  0
    3.0937    1.1971    0.0000 O   0  0  0  0  0  2  0  0  0  0  0  0
    3.9007    1.3686    0.0000 N   0  0  0  0  0  5  0  0  0  0  0  0
    4.1556    2.1533    0.0000 O   0  0  0  0  0  2  0  0  0  0  0  0
    4.4527    0.7556    0.0000 O   0  0  0  0  0  0  0  0  0  0  0  0
  1  2  1  0  0  0  0 
  2  3  1  0  0  0  0 
  3  4  1  0  0  0  0 
  4  5  1  0  0  0  0 
  5  6  1  0  0  0  0 
  6  7  1  0  0  0  0 
  7  8  1  0  0  0  0 
  8  9  1  0  0  0  0 
  2  9  1  0  0  0  0 
  5  9  1  0  0  0  0 
  6 10  1  0  0  0  0 
 10 11  1  0  0  0  0 
 11 12  2  0  0  0  0 
 11 13  2  0  0  0  0 
M  CHG  1  13  -1
M  END
> <Mol Weight>
191.1388

> <Formula>
C6H9NO6

> <CdId>
293

> <RCDK_LipinskiFailures>
0

> <source>
FDA

> <name>
Isosorbide mononitrate

> <ABUNDANCE>
67.2% at pH 4.8

> <BLABBER_CHARGE>
-1

> <inchi>
1S/C6H9NO6/c8-3-1-11-6-4(13-7(9)10)2-12-5(3)6/h3-6,8H,1-2H2

> <activity>
0

$$$$

  CDK     0331111707

 26 27  0  0  0  0  0  0  0  0999 V2000
    3.9333    0.3660    0.0000 C   0  0  0  0  0  4  0  0  0  0  0  0
    3.5596   -0.3695    0.0000 C   0  0  0  0  0  4  0  0  0  0  0  0
    4.0097   -1.0609    0.0000 C   0  0  0  0  0  4  0  0  0  0  0  0
    2.7358   -0.4137    0.0000 N   0  0  0  0  0  4  0  0  0  0  0  0
    2.6916    0.4101    0.0000 C   0  0  0  0  0  4  0  0  0  0  0  0
    1.9120   -0.4578    0.0000 C   0  0  0  0  0  4  0  0  0  0  0  0
    1.5383   -1.1934    0.0000 C   0  0  0  0  0  4  0  0  0  0  0  0
    0.7145   -1.2375    0.0000 C   0  0  0  0  0  4  0  0  0  0  0  0
    0.6703   -0.4137    0.0000 C   0  0  0  0  0  4  0  0  0  0  0  0
    1.3617    0.0365    0.0000 N   0  0  0  0  0  3  0  0  0  0  0  0
   -0.0652   -0.0400    0.0000 O   0  0  0  0  0  2  0  0  0  0  0  0
   -0.1093   -1.2816    0.0000 C   0  0  0  0  0  4  0  0  0  0  0  0
   -0.4830   -2.0172    0.0000 C   0  0  0  0  0  4  0  0  0  0  0  0
   -1.3068   -2.0613    0.0000 C   0  0  0  0  0  4  0  0  0  0  0  0
   -1.7570   -1.3699    0.0000 C   0  0  0  0  0  4  0  0  0  0  0  0
   -1.3833   -0.6344    0.0000 C   0  0  0  0  0  4  0  0  0  0  0  0
   -0.5595   -0.5903    0.0000 C   0  0  0  0  0  4  0  0  0  0  0  0
    0.7586   -2.0613    0.0000 C   0  0  0  0  0  4  0  0  0  0  0  0
    1.4941   -2.4350    0.0000 C   0  0  0  0  0  4  0  0  0  0  0  0
    1.5383   -3.2588    0.0000 C   0  0  0  0  0  4  0  0  0  0  0  0
    0.8469   -3.7090    0.0000 C   0  0  0  0  0  4  0  0  0  0  0  0
    0.1114   -3.3353    0.0000 C   0  0  0  0  0  4  0  0  0  0  0  0
    0.0672   -2.5115    0.0000 C   0  0  0  0  0  4  0  0  0  0  0  0
    2.7799   -1.2375    0.0000 C   0  0  0  0  0  4  0  0  0  0  0  0
    3.5155   -1.6112    0.0000 C   0  0  0  0  0  4  0  0  0  0  0  0
    2.0886   -1.6876    0.0000 C   0  0  0  0  0  4  0  0  0  0  0  0
  1  2  1  0  0  0  0 
  2  3  1  0  0  0  0 
  2  4  1  0  0  0  0 
  4  5  1  0  0  0  0 
  4  6  1  0  0  0  0 
  6  7  1  0  0  0  0 
  7  8  1  0  0  0  0 
  8  9  1  0  0  0  0 
  9 10  1  0  0  0  0 
  9 11  2  0  0  0  0 
  8 12  1  0  0  0  0 
 12 13  2  0  0  0  0 
 13 14  1  0  0  0  0 
 14 15  2  0  0  0  0 
 15 16  1  0  0  0  0 
 16 17  2  0  0  0  0 
 12 17  1  0  0  0  0 
  8 18  1  0  0  0  0 
 18 19  2  0  0  0  0 
 19 20  1  0  0  0  0 
 20 21  2  0  0  0  0 
 21 22  1  0  0  0  0 
 22 23  2  0  0  0  0 
 18 23  1  0  0  0  0 
  4 24  1  0  0  0  0 
 24 25  1  0  0  0  0 
 24 26  1  0  0  0  0 
M  CHG  1   4   1
M  END
> <Mol Weight>
353.5209

> <Formula>
C23H33N2O

> <CdId>
292

> <RCDK_LipinskiFailures>
0

> <source>
FDA

> <name>
Isopropamide

> <ABUNDANCE>
100% at pH 4.8

> <BLABBER_CHARGE>
1

> <inchi>
1S/C23H32N2O/c1-18(2)25(5,19(3)4)17-16-23(22(24)26,20-12-8-6-9-13-20)21-14-10-7-11-15-21/h6-15,18-19H,16-17H2,1-5H3,(H-,24,26)/p+1

> <activity>
0

$$$$

  CDK     0331111707

 10 10  0  0  0  0  0  0  0  0999 V2000
   -0.0000    3.3000    0.0000 N   0  0  0  0  0  3  0  0  0  0  0  0
   -0.0000    2.4750    0.0000 N   0  0  0  0  0  3  0  0  0  0  0  0
    0.7145    2.0625    0.0000 C   0  0  0  0  0  4  0  0  0  0  0  0
    1.4289    2.4750    0.0000 O   0  0  0  0  0  2  0  0  0  0  0  0
    0.7145    1.2375    0.0000 C   0  0  0  0  0  4  0  0  0  0  0  0
    1.4289    0.8250    0.0000 C   0  0  0  0  0  4  0  0  0  0  0  0
    1.4289    0.0000    0.0000 C   0  0  0  0  0  4  0  0  0  0  0  0
    0.7145   -0.4125    0.0000 N   0  0  0  0  0  3  0  0  0  0  0  0
    0.0000   -0.0000    0.0000 C   0  0  0  0  0  4  0  0  0  0  0  0
   -0.0000    0.8250    0.0000 C   0  0  0  0  0  4  0  0  0  0  0  0
  1  2  1  0  0  0  0 
  2  3  1  0  0  0  0 
  3  4  2  0  0  0  0 
  3  5  1  0  0  0  0 
  5  6  2  0  0  0  0 
  6  7  1  0  0  0  0 
  7  8  2  0  0  0  0 
  8  9  1  0  0  0  0 
  9 10  2  0  0  0  0 
  5 10  1  0  0  0  0 
M  END
> <Mol Weight>
137.1393

> <Formula>
C6H7N3O

> <CdId>
291

> <RCDK_LipinskiFailures>
0

> <source>
FDA

> <name>
Isoniazid

> <ABUNDANCE>
93.33% at pH 4.8

> <BLABBER_CHARGE>


> <inchi>
1S/C6H7N3O/c7-9-6(10)5-1-3-8-4-2-5/h1-4H,7H2,(H,9,10)

> <activity>
0

$$$$

  CDK     0331111707

 10  9  0  0  0  0  0  0  0  0999 V2000
   -0.1914    0.7145    0.0000 C   0  0  0  0  0  4  0  0  0  0  0  0
    0.5230    1.1270    0.0000 N   0  0  0  0  0  4  0  0  0  0  0  0
    1.2375    0.7145    0.0000 C   0  0  0  0  0  4  0  0  0  0  0  0
    1.2375   -0.1105    0.0000 C   0  0  0  0  0  4  0  0  0  0  0  0
    1.9520    1.1270    0.0000 C   0  0  0  0  0  4  0  0  0  0  0  0
    2.6664    0.7145    0.0000 C   0  0  0  0  0  4  0  0  0  0  0  0
    3.3809    1.1270    0.0000 C   0  0  0  0  0  4  0  0  0  0  0  0
    4.0954    0.7145    0.0000 C   0  0  0  0  0  4  0  0  0  0  0  0
    4.8099    1.1270    0.0000 C   0  0  0  0  0  4  0  0  0  0  0  0
    4.0954   -0.1105    0.0000 C   0  0  0  0  0  4  0  0  0  0  0  0
  1  2  1  0  0  0  0 
  2  3  1  0  0  0  0 
  3  4  1  0  0  0  0 
  3  5  1  0  0  0  0 
  5  6  1  0  0  0  0 
  6  7  1  0  0  0  0 
  7  8  2  0  0  0  0 
  8  9  1  0  0  0  0 
  8 10  1  0  0  0  0 
M  CHG  1   2   1
M  END
> <Mol Weight>
141.2539

> <Formula>
C9H19N

> <CdId>
290

> <RCDK_LipinskiFailures>
0

> <source>
FDA

> <name>
Isometheptene

> <ABUNDANCE>
100% at pH 4.8

> <BLABBER_CHARGE>
1

> <inchi>
1S/C9H19N/c1-8(2)6-5-7-9(3)10-4/h6,9-10H,5,7H2,1-4H3

> <activity>
0

$$$$

  CDK     0331111707

 19 19  0  0  0  0  0  0  0  0999 V2000
    4.2868    0.8250    0.0000 C   0  0  0  0  0  4  0  0  0  0  0  0
    3.5724    1.2375    0.0000 N   0  0  0  0  0  3  0  0  0  0  0  0
    3.5724    2.0625    0.0000 C   0  0  0  0  0  4  0  0  0  0  0  0
    2.8579    0.8250    0.0000 C   0  0  0  0  0  4  0  0  0  0  0  0
    2.1434    1.2375    0.0000 N   0  0  0  0  0  4  0  0  0  0  0  0
    1.4289    0.8250    0.0000 C   0  0  0  0  0  4  0  0  0  0  0  0
    1.4289   -0.0000    0.0000 C   0  0  0  0  0  4  0  0  0  0  0  0
    0.7145   -0.4125    0.0000 C   0  0  0  0  0  4  0  0  0  0  0  0
    0.0000    0.0000    0.0000 C   0  0  0  0  0  4  0  0  0  0  0  0
    0.0000    0.8250    0.0000 C   0  0  0  0  0  4  0  0  0  0  0  0
   -0.7145    1.2375    0.0000 C   0  0  0  0  0  4  0  0  0  0  0  0
   -1.4289    0.8250    0.0000 C   0  0  0  0  0  4  0  0  0  0  0  0
   -2.1434    1.2375    0.0000 C   0  0  0  0  0  4  0  0  0  0  0  0
   -2.8579    0.8250    0.0000 O   0  0  0  0  0  2  0  0  0  0  0  0
   -2.1434    2.0625    0.0000 O   0  0  0  0  0  1  0  0  0  0  0  0
    0.7145    1.2375    0.0000 C   0  0  0  0  0  4  0  0  0  0  0  0
    0.7145    2.0625    0.0000 I   0  0  0  0  0  1  0  0  0  0  0  0
   -0.7145   -0.4125    0.0000 I   0  0  0  0  0  1  0  0  0  0  0  0
    2.1434   -0.4125    0.0000 I   0  0  0  0  0  1  0  0  0  0  0  0
  1  2  1  0  0  0  0 
  2  3  1  0  0  0  0 
  4  2  1  4  0  0  0 
  4  5  2  0  0  0  0 
  5  6  1  0  0  0  0 
  6  7  2  0  0  0  0 
  7  8  1  0  0  0  0 
  8  9  2  0  0  0  0 
  9 10  1  0  0  0  0 
 10 11  1  0  0  0  0 
 11 12  1  0  0  0  0 
 12 13  1  0  0  0  0 
 13 14  2  0  0  0  0 
 13 15  1  0  0  0  0 
 10 16  2  0  0  0  0 
  6 16  1  0  0  0  0 
 16 17  1  0  0  0  0 
  9 18  1  0  0  0  0 
  7 19  1  0  0  0  0 
M  CHG  1   5   1
M  CHG  1  15  -1
M  END
> <Mol Weight>
597.9572

> <Formula>
C12H13I3N2O2

> <CdId>
288

> <RCDK_LipinskiFailures>
0

> <source>
FDA

> <name>
Ipodic acid

> <ABUNDANCE>
87.71% at pH 4.8

> <BLABBER_CHARGE>
0

> <inchi>
1S/C12H13I3N2O2/c1-17(2)6-16-12-9(14)5-8(13)7(11(12)15)3-4-10(18)19/h5-6H,3-4H2,1-2H3,(H,18,19)/b16-6+

> <activity>
0

$$$$

  CDK     0331111707

 20 20  0  0  0  0  0  0  0  0999 V2000
    2.8579    2.4750    0.0000 C   0  0  0  0  0  4  0  0  0  0  0  0
    2.1434    2.0625    0.0000 N   0  0  0  0  0  3  0  0  0  0  0  0
    2.1434    1.2375    0.0000 C   0  0  0  0  0  4  0  0  0  0  0  0
    2.8579    0.8250    0.0000 O   0  0  0  0  0  2  0  0  0  0  0  0
    1.4289    0.8250    0.0000 C   0  0  0  0  0  4  0  0  0  0  0  0
    1.4289   -0.0000    0.0000 C   0  0  0  0  0  4  0  0  0  0  0  0
    0.7145   -0.4125    0.0000 C   0  0  0  0  0  4  0  0  0  0  0  0
    0.7145   -1.2375    0.0000 N   0  0  0  0  0  3  0  0  0  0  0  0
   -0.0000   -1.6500    0.0000 C   0  0  0  0  0  4  0  0  0  0  0  0
   -0.0000   -2.4750    0.0000 C   0  0  0  0  0  4  0  0  0  0  0  0
   -0.7145   -1.2375    0.0000 O   0  0  0  0  0  2  0  0  0  0  0  0
    0.0000    0.0000    0.0000 C   0  0  0  0  0  4  0  0  0  0  0  0
    0.0000    0.8250    0.0000 C   0  0  0  0  0  4  0  0  0  0  0  0
   -0.7145    1.2375    0.0000 C   0  0  0  0  0  4  0  0  0  0  0  0
   -0.7145    2.0625    0.0000 O   0  0  0  0  0  2  0  0  0  0  0  0
   -1.4289    0.8250    0.0000 O   0  0  0  0  0  1  0  0  0  0  0  0
    0.7145    1.2375    0.0000 C   0  0  0  0  0  4  0  0  0  0  0  0
    0.7145    2.0625    0.0000 I   0  0  0  0  0  1  0  0  0  0  0  0
   -0.7145   -0.4125    0.0000 I   0  0  0  0  0  1  0  0  0  0  0  0
    2.1434   -0.4125    0.0000 I   0  0  0  0  0  1  0  0  0  0  0  0
  1  2  1  0  0  0  0 
  2  3  1  0  0  0  0 
  3  4  2  0  0  0  0 
  3  5  1  0  0  0  0 
  5  6  2  0  0  0  0 
  6  7  1  0  0  0  0 
  7  8  1  0  0  0  0 
  8  9  1  0  0  0  0 
  9 10  1  0  0  0  0 
  9 11  2  0  0  0  0 
  7 12  2  0  0  0  0 
 12 13  1  0  0  0  0 
 13 14  1  0  0  0  0 
 14 15  2  0  0  0  0 
 14 16  1  0  0  0  0 
 13 17  2  0  0  0  0 
  5 17  1  0  0  0  0 
 17 18  1  0  0  0  0 
 12 19  1  0  0  0  0 
  6 20  1  0  0  0  0 
M  CHG  1  16  -1
M  END
> <Mol Weight>
613.9136

> <Formula>
C11H9I3N2O4

> <CdId>
287

> <RCDK_LipinskiFailures>
0

> <source>
FDA

> <name>
Iothalamic acid

> <ABUNDANCE>
97.25% at pH 4.8

> <BLABBER_CHARGE>
-1

> <inchi>
1S/C11H9I3N2O4/c1-3(17)16-9-7(13)4(10(18)15-2)6(12)5(8(9)14)11(19)20/h1-2H3,(H,15,18)(H,16,17)(H,19,20)

> <activity>
0

$$$$

  CDK     0331111707

  9  9  0  0  0  0  0  0  0  0999 V2000
    2.1434    1.2375    0.0000 O   0  0  0  0  0  1  0  0  0  0  0  0
    1.4289    0.8250    0.0000 C   0  0  0  0  0  4  0  0  0  0  0  0
    1.4289   -0.0000    0.0000 N   0  0  0  0  0  4  0  0  0  0  0  0
    0.7145   -0.4125    0.0000 C   0  0  0  0  0  4  0  0  0  0  0  0
    0.0000    0.0000    0.0000 N   0  0  0  0  0  3  0  0  0  0  0  0
    0.0000    0.8250    0.0000 C   0  0  0  0  0  4  0  0  0  0  0  0
    0.7145    1.2375    0.0000 C   0  0  0  0  0  4  0  0  0  0  0  0
    0.7145    2.0625    0.0000 I   0  0  0  0  0  1  0  0  0  0  0  0
    0.7145   -1.2375    0.0000 S   0  0  0  0  0  2  0  0  0  0  0  0
  1  2  1  0  0  0  0 
  2  3  2  0  0  0  0 
  3  4  1  0  0  0  0 
  4  5  2  0  0  0  0 
  5  6  1  0  0  0  0 
  6  7  2  0  0  0  0 
  2  7  1  0  0  0  0 
  7  8  1  0  0  0  0 
  4  9  1  0  0  0  0 
M  CHG  1   1  -1
M  CHG  1   3   1
M  END
> <Mol Weight>
254.049

> <Formula>
C4H3IN2OS

> <CdId>
286

> <RCDK_LipinskiFailures>
0

> <source>
FDA

> <name>
Iodothiouracil

> <ABUNDANCE>
48.68% at pH 4.8

> <BLABBER_CHARGE>
0

> <CHECK TAUTOMER>
Multiple tautomers in input structure. Results could be inaccurate.

> <inchi>
1S/C4H3IN2OS/c5-2-1-6-4(9)7-3(2)8/h1H,(H2,6,7,8,9)

> <activity>
0

$$$$

  CDK     0331111707

 21 21  0  0  0  0  0  0  0  0999 V2000
    2.8579    3.3000    0.0000 C   0  0  0  0  0  4  0  0  0  0  0  0
    2.8579    2.4750    0.0000 C   0  0  0  0  0  4  0  0  0  0  0  0
    3.5724    2.0625    0.0000 O   0  0  0  0  0  2  0  0  0  0  0  0
    2.1434    2.0625    0.0000 N   0  0  0  0  0  3  0  0  0  0  0  0
    2.1434    1.2375    0.0000 C   0  0  0  0  0  4  0  0  0  0  0  0
    1.4289    0.8250    0.0000 C   0  0  0  0  0  4  0  0  0  0  0  0
    1.4289   -0.0000    0.0000 C   0  0  0  0  0  4  0  0  0  0  0  0
    0.7145   -0.4125    0.0000 C   0  0  0  0  0  4  0  0  0  0  0  0
    0.7145   -1.2375    0.0000 N   0  0  0  0  0  3  0  0  0  0  0  0
   -0.0000   -1.6500    0.0000 C   0  0  0  0  0  4  0  0  0  0  0  0
   -0.0000   -2.4750    0.0000 C   0  0  0  0  0  4  0  0  0  0  0  0
   -0.7145   -1.2375    0.0000 O   0  0  0  0  0  2  0  0  0  0  0  0
    0.0000    0.0000    0.0000 C   0  0  0  0  0  4  0  0  0  0  0  0
    0.0000    0.8250    0.0000 C   0  0  0  0  0  4  0  0  0  0  0  0
   -0.7145    1.2375    0.0000 C   0  0  0  0  0  4  0  0  0  0  0  0
   -0.7145    2.0625    0.0000 O   0  0  0  0  0  2  0  0  0  0  0  0
   -1.4289    0.8250    0.0000 O   0  0  0  0  0  1  0  0  0  0  0  0
    0.7145    1.2375    0.0000 C   0  0  0  0  0  4  0  0  0  0  0  0
    0.7145    2.0625    0.0000 I   0  0  0  0  0  1  0  0  0  0  0  0
   -0.7145   -0.4125    0.0000 I   0  0  0  0  0  1  0  0  0  0  0  0
    2.1434   -0.4125    0.0000 I   0  0  0  0  0  1  0  0  0  0  0  0
  1  2  1  0  0  0  0 
  2  3  2  0  0  0  0 
  2  4  1  0  0  0  0 
  4  5  1  0  0  0  0 
  5  6  1  0  0  0  0 
  6  7  2  0  0  0  0 
  7  8  1  0  0  0  0 
  8  9  1  0  0  0  0 
  9 10  1  0  0  0  0 
 10 11  1  0  0  0  0 
 10 12  2  0  0  0  0 
  8 13  2  0  0  0  0 
 13 14  1  0  0  0  0 
 14 15  1  0  0  0  0 
 15 16  2  0  0  0  0 
 15 17  1  0  0  0  0 
 14 18  2  0  0  0  0 
  6 18  1  0  0  0  0 
 18 19  1  0  0  0  0 
 13 20  1  0  0  0  0 
  7 21  1  0  0  0  0 
M  CHG  1  17  -1
M  END
> <Mol Weight>
627.9402

> <Formula>
C12H11I3N2O4

> <CdId>
284

> <RCDK_LipinskiFailures>
0

> <source>
FDA

> <name>
Iodamide

> <ABUNDANCE>
95.01% at pH 4.8

> <BLABBER_CHARGE>
-1

> <inchi>
1S/C12H11I3N2O4/c1-4(18)16-3-6-8(13)7(12(20)21)10(15)11(9(6)14)17-5(2)19/h3H2,1-2H3,(H,16,18)(H,17,19)(H,20,21)

> <activity>
0

$$$$

  CDK     0331111707

 12 12  0  0  0  0  0  0  0  0999 V2000
    2.1434    1.2375    0.0000 O   0  0  0  0  0  2  0  0  0  0  0  0
    1.4289    0.8250    0.0000 C   0  0  0  0  0  4  0  0  0  0  0  0
    1.4289   -0.0000    0.0000 C   0  0  0  0  0  4  0  0  0  0  0  0
    2.1434   -0.4125    0.0000 O   0  0  0  0  0  2  0  0  0  0  0  0
    0.7145   -0.4125    0.0000 C   0  0  0  0  0  4  0  0  0  0  0  0
    0.7145   -1.2375    0.0000 O   0  0  0  0  0  2  0  0  0  0  0  0
    0.0000    0.0000    0.0000 C   0  0  0  0  0  4  0  0  0  0  0  0
   -0.7145   -0.4125    0.0000 O   0  0  0  0  0  2  0  0  0  0  0  0
    0.0000    0.8250    0.0000 C   0  0  0  0  0  4  0  0  0  0  0  0
   -0.7145    1.2375    0.0000 O   0  0  0  0  0  2  0  0  0  0  0  0
    0.7145    1.2375    0.0000 C   0  0  0  0  0  4  0  0  0  0  0  0
    0.7145    2.0625    0.0000 O   0  0  0  0  0  2  0  0  0  0  0  0
  1  2  1  0  0  0  0 
  2  3  1  0  0  0  0 
  3  4  1  0  0  0  0 
  3  5  1  0  0  0  0 
  5  6  1  0  0  0  0 
  5  7  1  0  0  0  0 
  7  8  1  0  0  0  0 
  7  9  1  0  0  0  0 
  9 10  1  0  0  0  0 
  9 11  1  0  0  0  0 
  2 11  1  0  0  0  0 
 11 12  1  0  0  0  0 
M  END
> <Mol Weight>
180.1559

> <Formula>
C6H12O6

> <CdId>
283

> <RCDK_LipinskiFailures>
0

> <source>
FDA

> <name>
Inositol

> <ABUNDANCE>
100% at pH 4.8

> <BLABBER_CHARGE>


> <inchi>
1S/C6H12O6/c7-1-2(8)4(10)6(12)5(11)3(1)9/h1-12H

> <activity>
0

$$$$

  CDK     0331111707

 36 40  0  0  0  0  0  0  0  0999 V2000
    1.0488   -2.7940    0.0000 C   0  0  0  0  0  4  0  0  0  0  0  0
    1.3309   -3.5692    0.0000 C   0  0  0  0  0  4  0  0  0  0  0  0
    0.8006   -4.2012    0.0000 O   0  0  0  0  0  2  0  0  0  0  0  0
    2.1434   -3.7125    0.0000 C   0  0  0  0  0  4  0  0  0  0  0  0
    1.8612   -4.4877    0.0000 O   0  0  0  0  0  2  0  0  0  0  0  0
    2.1434   -2.8875    0.0000 C   0  0  0  0  0  4  0  0  0  0  0  0
    2.8579   -2.4750    0.0000 C   0  0  0  0  0  4  0  0  0  0  0  0
    2.8579   -1.6500    0.0000 O   0  0  0  0  0  2  0  0  0  0  0  0
    2.1434   -1.2375    0.0000 C   0  0  0  0  0  4  0  0  0  0  0  0
    1.4289   -1.6500    0.0000 C   0  0  0  0  0  4  0  0  0  0  0  0
    0.7145   -1.2375    0.0000 C   0  0  0  0  0  4  0  0  0  0  0  0
    0.0000   -1.6500    0.0000 N   0  0  0  0  0  4  0  0  0  0  0  0
    0.7145   -0.4125    0.0000 C   0  0  0  0  0  4  0  0  0  0  0  0
    0.0000    0.0000    0.0000 O   0  0  0  0  0  2  0  0  0  0  0  0
    1.4289    0.0000    0.0000 C   0  0  0  0  0  4  0  0  0  0  0  0
    1.4289    0.8250    0.0000 C   0  0  0  0  0  4  0  0  0  0  0  0
    2.1434   -0.4125    0.0000 O   0  0  0  0  0  2  0  0  0  0  0  0
    3.5724   -2.8875    0.0000 C   0  0  0  0  0  4  0  0  0  0  0  0
    4.2868   -2.4750    0.0000 C   0  0  0  0  0  4  0  0  0  0  0  0
    4.2868   -1.6500    0.0000 O   0  0  0  0  0  2  0  0  0  0  0  0
    5.0013   -2.8875    0.0000 C   0  0  0  0  0  4  0  0  0  0  0  0
    5.7158   -2.4750    0.0000 C   0  0  0  0  0  4  0  0  0  0  0  0
    5.7158   -1.6500    0.0000 O   0  0  0  0  0  2  0  0  0  0  0  0
    6.4302   -2.8875    0.0000 C   0  0  0  0  0  4  0  0  0  0  0  0
    7.1447   -2.4750    0.0000 C   0  0  0  0  0  4  0  0  0  0  0  0
    7.8592   -2.8875    0.0000 C   0  0  0  0  0  4  0  0  0  0  0  0
    7.8592   -3.7125    0.0000 C   0  0  0  0  0  4  0  0  0  0  0  0
    7.1447   -4.1250    0.0000 C   0  0  0  0  0  4  0  0  0  0  0  0
    6.4302   -3.7125    0.0000 C   0  0  0  0  0  4  0  0  0  0  0  0
    5.7158   -4.1250    0.0000 C   0  0  0  0  0  4  0  0  0  0  0  0
    5.7158   -4.9500    0.0000 O   0  0  0  0  0  2  0  0  0  0  0  0
    5.0013   -3.7125    0.0000 C   0  0  0  0  0  4  0  0  0  0  0  0
    4.2868   -4.1250    0.0000 C   0  0  0  0  0  4  0  0  0  0  0  0
    4.2868   -4.9500    0.0000 O   0  0  0  0  0  2  0  0  0  0  0  0
    3.5724   -3.7125    0.0000 C   0  0  0  0  0  4  0  0  0  0  0  0
    2.8579   -4.1250    0.0000 C   0  0  0  0  0  4  0  0  0  0  0  0
  1  2  1  0  0  0  0 
  2  3  2  0  0  0  0 
  2  4  1  0  0  0  0 
  4  5  1  0  0  0  0 
  4  6  1  0  0  0  0 
  6  7  1  0  0  0  0 
  7  8  1  0  0  0  0 
  8  9  1  0  0  0  0 
  9 10  1  0  0  0  0 
 10 11  1  0  0  0  0 
 11 12  1  0  0  0  0 
 11 13  1  0  0  0  0 
 13 14  1  0  0  0  0 
 13 15  1  0  0  0  0 
 15 16  1  0  0  0  0 
 15 17  1  0  0  0  0 
  9 17  1  0  0  0  0 
  7 18  1  0  0  0  0 
 18 19  2  0  0  0  0 
 19 20  1  0  0  0  0 
 19 21  1  0  0  0  0 
 21 22  1  0  0  0  0 
 22 23  2  0  0  0  0 
 22 24  1  0  0  0  0 
 24 25  2  0  0  0  0 
 25 26  1  0  0  0  0 
 26 27  2  0  0  0  0 
 27 28  1  0  0  0  0 
 28 29  2  0  0  0  0 
 24 29  1  0  0  0  0 
 29 30  1  0  0  0  0 
 30 31  2  0  0  0  0 
 30 32  1  0  0  0  0 
 21 32  2  0  0  0  0 
 32 33  1  0  0  0  0 
 33 34  1  0  0  0  0 
 33 35  2  0  0  0  0 
 18 35  1  0  0  0  0 
 35 36  1  0  0  0  0 
  4 36  1  0  0  0  0 
M  CHG  1  12   1
M  END
> <Mol Weight>
497.4939

> <Formula>
C26H27NO9

> <CdId>
279

> <RCDK_LipinskiFailures>
0

> <source>
FDA

> <name>
Idarubicin

> <ABUNDANCE>
99.78% at pH 4.8

> <BLABBER_CHARGE>
1

> <inchi>
1S/C26H27NO9/c1-10-21(29)15(27)7-17(35-10)36-16-9-26(34,11(2)28)8-14-18(16)25(33)20-19(24(14)32)22(30)12-5-3-4-6-13(12)23(20)31/h3-6,10,15-17,21,29,32-34H,7-9,27H2,1-2H3

> <activity>
0

$$$$

  CDK     0331111707

 19 20  0  0  0  0  0  0  0  0999 V2000
    0.0000   -1.6500    0.0000 C   0  0  0  0  0  4  0  0  0  0  0  0
    0.7145   -1.2375    0.0000 C   0  0  0  0  0  4  0  0  0  0  0  0
    1.4289   -1.6500    0.0000 C   0  0  0  0  0  4  0  0  0  0  0  0
    1.4289   -2.4750    0.0000 N   0  0  0  0  0  3  0  0  0  0  0  0
    2.1434   -2.8875    0.0000 C   0  0  0  0  0  4  0  0  0  0  0  0
    2.1434   -3.7125    0.0000 C   0  0  0  0  0  4  0  0  0  0  0  0
    2.8579   -4.1250    0.0000 O   0  0  0  0  0  2  0  0  0  0  0  0
    1.4289   -4.1250    0.0000 N   0  0  0  0  0  3  0  0  0  0  0  0
    0.7145   -3.7125    0.0000 C   0  0  0  0  0  4  0  0  0  0  0  0
    0.0000   -4.1250    0.0000 O   0  0  0  0  0  2  0  0  0  0  0  0
    0.7145   -2.8875    0.0000 C   0  0  0  0  0  4  0  0  0  0  0  0
    0.7145   -0.4125    0.0000 N   0  0  0  0  0  4  0  0  0  0  0  0
    0.0000    0.0000    0.0000 C   0  0  0  0  0  4  0  0  0  0  0  0
    0.0000    0.8250    0.0000 C   0  0  0  0  0  4  0  0  0  0  0  0
   -0.7145    1.2375    0.0000 O   0  0  0  0  0  2  0  0  0  0  0  0
    0.7145    1.2375    0.0000 N   0  0  0  0  0  3  0  0  0  0  0  0
    1.4289    0.8250    0.0000 C   0  0  0  0  0  4  0  0  0  0  0  0
    2.1434    1.2375    0.0000 O   0  0  0  0  0  2  0  0  0  0  0  0
    1.4289    0.0000    0.0000 C   0  0  0  0  0  4  0  0  0  0  0  0
  1  2  1  0  0  0  0 
  2  3  1  0  0  0  0 
  3  4  1  0  0  0  0 
  4  5  1  0  0  0  0 
  5  6  1  0  0  0  0 
  6  7  2  0  0  0  0 
  6  8  1  0  0  0  0 
  8  9  1  0  0  0  0 
  9 10  2  0  0  0  0 
  9 11  1  0  0  0  0 
  4 11  1  0  0  0  0 
  2 12  1  0  0  0  0 
 12 13  1  0  0  0  0 
 13 14  1  0  0  0  0 
 14 15  2  0  0  0  0 
 14 16  1  0  0  0  0 
 16 17  1  0  0  0  0 
 17 18  2  0  0  0  0 
 17 19  1  0  0  0  0 
 12 19  1  0  0  0  0 
M  CHG  1  12   1
M  END
> <Mol Weight>
268.2691

> <Formula>
C11H16N4O4

> <CdId>
278

> <RCDK_LipinskiFailures>
0

> <source>
FDA

> <name>
ICRF-159

> <ABUNDANCE>
96.64% at pH 4.8

> <BLABBER_CHARGE>
1

> <inchi>
1S/C11H16N4O4/c1-7(15-5-10(18)13-11(19)6-15)2-14-3-8(16)12-9(17)4-14/h7H,2-6H2,1H3,(H,12,16,17)(H,13,18,19)

> <activity>
0

$$$$

  CDK     0331111707

 10 10  0  0  0  0  0  0  0  0999 V2000
    2.0796    0.9993    0.0000 N   0  0  0  0  0  4  0  0  0  0  0  0
    2.0796    0.1743    0.0000 C   0  0  0  0  0  4  0  0  0  0  0  0
    1.3651   -0.2382    0.0000 C   0  0  0  0  0  4  0  0  0  0  0  0
    0.6507    0.1743    0.0000 C   0  0  0  0  0  4  0  0  0  0  0  0
   -0.1743    0.1743    0.0000 C   0  0  0  0  0  4  0  0  0  0  0  0
    0.2382    0.8888    0.0000 C   0  0  0  0  0  4  0  0  0  0  0  0
    0.2382    1.7138    0.0000 C   0  0  0  0  0  4  0  0  0  0  0  0
    2.7941   -0.2382    0.0000 C   0  0  0  0  0  4  0  0  0  0  0  0
    3.5085    0.1743    0.0000 O   0  0  0  0  0  2  0  0  0  0  0  0
    2.7941   -1.0632    0.0000 O   0  0  0  0  0  1  0  0  0  0  0  0
  1  2  1  0  0  0  0 
  2  3  1  0  0  0  0 
  3  4  1  0  0  0  0 
  4  5  1  0  0  0  0 
  5  6  1  0  0  0  0 
  4  6  1  0  0  0  0 
  6  7  2  0  0  0  0 
  2  8  1  0  0  0  0 
  8  9  2  0  0  0  0 
  8 10  1  0  0  0  0 
M  CHG  1   1   1
M  CHG  1  10  -1
M  END
> <Mol Weight>
141.1677

> <Formula>
C7H11NO2

> <CdId>
276

> <RCDK_LipinskiFailures>
0

> <source>
BYLER

> <name>
hypoglycin-A

> <ABUNDANCE>
99.61% at pH 4.8

> <BLABBER_CHARGE>
0

> <inchi>
1S/C7H11NO2/c1-4-2-5(4)3-6(8)7(9)10/h5-6H,1-3,8H2,(H,9,10)

> <activity>
0

$$$$

  CDK     0331111707

  5  4  0  0  0  0  0  0  0  0999 V2000
    2.0625   -0.7145    0.0000 N   0  0  0  0  0  3  0  0  0  0  0  0
    1.2375   -0.7145    0.0000 C   0  0  0  0  0  4  0  0  0  0  0  0
    0.8250   -1.4289    0.0000 O   0  0  0  0  0  2  0  0  0  0  0  0
    0.8250    0.0000    0.0000 N   0  0  0  0  0  3  0  0  0  0  0  0
    0.0000    0.0000    0.0000 O   0  0  0  0  0  2  0  0  0  0  0  0
  1  2  1  0  0  0  0 
  2  3  2  0  0  0  0 
  2  4  1  0  0  0  0 
  4  5  1  0  0  0  0 
M  END
> <Mol Weight>
76.0547

> <Formula>
CH4N2O2

> <CdId>
274

> <RCDK_LipinskiFailures>
0

> <source>
BYLER

> <name>
hydroxyurea

> <ABUNDANCE>
100% at pH 4.8

> <BLABBER_CHARGE>


> <inchi>
1S/CH4N2O2/c2-1(4)3-5/h5H,(H3,2,3,4)

> <activity>
0

$$$$

  CDK     0331111707

 21 22  0  0  0  0  0  0  0  0999 V2000
    0.7145   -1.2375    0.0000 N   0  0  0  0  0  4  0  0  0  0  0  0
    1.4289   -1.6500    0.0000 C   0  0  0  0  0  4  0  0  0  0  0  0
    2.1434   -1.2375    0.0000 N   0  0  0  0  0  3  0  0  0  0  0  0
    1.4289   -2.4750    0.0000 C   0  0  0  0  0  4  0  0  0  0  0  0
    2.1434   -2.8875    0.0000 C   0  0  0  0  0  4  0  0  0  0  0  0
    2.1434   -3.7125    0.0000 C   0  0  0  0  0  4  0  0  0  0  0  0
    1.4289   -4.1250    0.0000 C   0  0  0  0  0  4  0  0  0  0  0  0
    0.7145   -3.7125    0.0000 C   0  0  0  0  0  4  0  0  0  0  0  0
    0.7145   -2.8875    0.0000 C   0  0  0  0  0  4  0  0  0  0  0  0
    1.4289   -4.9500    0.0000 C   0  0  0  0  0  4  0  0  0  0  0  0
    2.1434   -5.3625    0.0000 C   0  0  0  0  0  4  0  0  0  0  0  0
    2.1434   -6.1875    0.0000 C   0  0  0  0  0  4  0  0  0  0  0  0
    2.8579   -6.6000    0.0000 C   0  0  0  0  0  4  0  0  0  0  0  0
    2.8579   -7.4250    0.0000 C   0  0  0  0  0  4  0  0  0  0  0  0
    2.1434   -7.8375    0.0000 C   0  0  0  0  0  4  0  0  0  0  0  0
    1.4289   -7.4250    0.0000 C   0  0  0  0  0  4  0  0  0  0  0  0
    1.4289   -6.6000    0.0000 C   0  0  0  0  0  4  0  0  0  0  0  0
    0.7145   -6.1875    0.0000 O   0  0  0  0  0  2  0  0  0  0  0  0
    2.1434   -8.6625    0.0000 C   0  0  0  0  0  4  0  0  0  0  0  0
    2.8579   -9.0750    0.0000 N   0  0  0  0  0  4  0  0  0  0  0  0
    1.4289   -9.0750    0.0000 N   0  0  0  0  0  3  0  0  0  0  0  0
  1  2  2  0  0  0  0 
  2  3  1  0  0  0  0 
  2  4  1  0  0  0  0 
  4  5  2  0  0  0  0 
  5  6  1  0  0  0  0 
  6  7  2  0  0  0  0 
  7  8  1  0  0  0  0 
  8  9  2  0  0  0  0 
  4  9  1  0  0  0  0 
 10  7  1  4  0  0  0 
 10 11  2  0  0  0  0 
 11 12  1  0  0  0  0 
 12 13  2  0  0  0  0 
 13 14  1  0  0  0  0 
 14 15  2  0  0  0  0 
 15 16  1  0  0  0  0 
 16 17  2  0  0  0  0 
 12 17  1  0  0  0  0 
 17 18  1  0  0  0  0 
 15 19  1  0  0  0  0 
 19 20  2  0  0  0  0 
 19 21  1  0  0  0  0 
M  CHG  1   1   1
M  CHG  1  20   1
M  END
> <Mol Weight>
280.3244

> <Formula>
C16H16N4O

> <CdId>
273

> <RCDK_LipinskiFailures>
0

> <source>
FDA

> <name>
Hydroxystilbamidine

> <ABUNDANCE>
99.99% at pH 4.8

> <BLABBER_CHARGE>
2

> <inchi>
1S/C16H16N4O/c17-15(18)12-5-2-10(3-6-12)1-4-11-7-8-13(16(19)20)9-14(11)21/h1-9,21H,(H3,17,18)(H3,19,20)/b4-1+

> <activity>
0

$$$$

  CDK     0331111707

 20 21  0  0  0  0  0  0  0  0999 V2000
   -2.1434   -2.0625    0.0000 N   0  0  0  0  0  3  0  0  0  0  0  0
   -1.4289   -1.6500    0.0000 S   0  0  0  0  0  6  0  0  0  0  0  0
   -1.0164   -2.3645    0.0000 O   0  0  0  0  0  2  0  0  0  0  0  0
   -1.8414   -0.9355    0.0000 O   0  0  0  0  0  2  0  0  0  0  0  0
   -0.7145   -1.2375    0.0000 C   0  0  0  0  0  4  0  0  0  0  0  0
    0.0000   -1.6500    0.0000 C   0  0  0  0  0  4  0  0  0  0  0  0
    0.7145   -1.2375    0.0000 C   0  0  0  0  0  4  0  0  0  0  0  0
    0.7145   -0.4125    0.0000 C   0  0  0  0  0  4  0  0  0  0  0  0
    0.0000   -0.0000    0.0000 C   0  0  0  0  0  4  0  0  0  0  0  0
   -0.7145   -0.4125    0.0000 C   0  0  0  0  0  4  0  0  0  0  0  0
   -1.4289    0.0000    0.0000 C   0  0  0  0  0  4  0  0  0  0  0  0
   -2.1434    0.4125    0.0000 F   0  0  0  0  0  1  0  0  0  0  0  0
   -2.0420   -0.5520    0.0000 F   0  0  0  0  0  1  0  0  0  0  0  0
   -1.0164    0.7145    0.0000 F   0  0  0  0  0  1  0  0  0  0  0  0
    1.4289   -0.0000    0.0000 N   0  0  0  0  0  3  0  0  0  0  0  0
    2.1434   -0.4125    0.0000 C   0  0  0  0  0  4  0  0  0  0  0  0
    2.1434   -1.2375    0.0000 N   0  0  0  0  0  3  0  0  0  0  0  0
    1.4289   -1.6500    0.0000 S   0  0  0  0  0  6  0  0  0  0  0  0
    1.8163   -2.3784    0.0000 O   0  0  0  0  0  2  0  0  0  0  0  0
    1.0416   -2.3784    0.0000 O   0  0  0  0  0  2  0  0  0  0  0  0
  1  2  1  0  0  0  0 
  2  3  2  0  0  0  0 
  2  4  2  0  0  0  0 
  2  5  1  0  0  0  0 
  5  6  2  0  0  0  0 
  6  7  1  0  0  0  0 
  7  8  2  0  0  0  0 
  8  9  1  0  0  0  0 
  9 10  2  0  0  0  0 
  5 10  1  0  0  0  0 
 10 11  1  0  0  0  0 
 11 12  1  0  0  0  0 
 11 13  1  0  0  0  0 
 11 14  1  0  0  0  0 
  8 15  1  0  0  0  0 
 15 16  1  0  0  0  0 
 16 17  1  0  0  0  0 
 17 18  1  0  0  0  0 
  7 18  1  0  0  0  0 
 18 19  2  0  0  0  0 
 18 20  2  0  0  0  0 
M  END
> <Mol Weight>
331.292

> <Formula>
C8H8F3N3O4S2

> <CdId>
271

> <RCDK_LipinskiFailures>
0

> <source>
FDA

> <name>
Hydroflumethiazide

> <ABUNDANCE>
99.17% at pH 4.8

> <BLABBER_CHARGE>


> <inchi>
1S/C8H8F3N3O4S2/c9-8(10,11)4-1-5-7(2-6(4)19(12,15)16)20(17,18)14-3-13-5/h1-2,13-14H,3H2,(H2,12,15,16)

> <activity>
0

$$$$

  CDK     0331111707

  2  1  0  0  0  0  0  0  0  0999 V2000
    0.8250    0.0000    0.0000 N   0  0  0  0  0  3  0  0  0  0  0  0
    0.0000    0.0000    0.0000 N   0  0  0  0  0  4  0  0  0  0  0  0
  1  2  1  0  0  0  0 
M  CHG  1   2   1
M  END
> <Mol Weight>
32.0452

> <Formula>
H4N2

> <CdId>
270

> <RCDK_LipinskiFailures>
0

> <source>
BYLER

> <name>
hydrazine

> <ABUNDANCE>
99.93% at pH 4.8

> <BLABBER_CHARGE>
1

> <inchi>
1S/H4N2/c1-2/h1-2H2

> <activity>
0

$$$$

  CDK     0331111707

 12 13  0  0  0  0  0  0  0  0999 V2000
    0.7145   -2.8875    0.0000 N   0  0  0  0  0  3  0  0  0  0  0  0
    1.4289   -2.4750    0.0000 N   0  0  0  0  0  3  0  0  0  0  0  0
    1.4289   -1.6500    0.0000 C   0  0  0  0  0  4  0  0  0  0  0  0
    0.7145   -1.2375    0.0000 N   0  0  0  0  0  4  0  0  0  0  0  0
    0.7145   -0.4125    0.0000 N   0  0  0  0  0  3  0  0  0  0  0  0
    1.4289    0.0000    0.0000 C   0  0  0  0  0  4  0  0  0  0  0  0
    2.1434   -0.4125    0.0000 C   0  0  0  0  0  4  0  0  0  0  0  0
    2.8579    0.0000    0.0000 C   0  0  0  0  0  4  0  0  0  0  0  0
    3.5724   -0.4125    0.0000 C   0  0  0  0  0  4  0  0  0  0  0  0
    3.5724   -1.2375    0.0000 C   0  0  0  0  0  4  0  0  0  0  0  0
    2.8579   -1.6500    0.0000 C   0  0  0  0  0  4  0  0  0  0  0  0
    2.1434   -1.2375    0.0000 C   0  0  0  0  0  4  0  0  0  0  0  0
  1  2  1  0  0  0  0 
  2  3  1  0  0  0  0 
  3  4  2  0  0  0  0 
  4  5  1  0  0  0  0 
  5  6  2  0  0  0  0 
  6  7  1  0  0  0  0 
  7  8  2  0  0  0  0 
  8  9  1  0  0  0  0 
  9 10  2  0  0  0  0 
 10 11  1  0  0  0  0 
 11 12  2  0  0  0  0 
  7 12  1  0  0  0  0 
  3 12  1  0  0  0  0 
M  CHG  1   4   1
M  END
> <Mol Weight>
160.1759

> <Formula>
C8H8N4

> <CdId>
269

> <RCDK_LipinskiFailures>
0

> <source>
FDA

> <name>
Hydralazine

> <ABUNDANCE>
89.95% at pH 4.8

> <BLABBER_CHARGE>
1

> <inchi>
1S/C8H8N4/c9-11-8-7-4-2-1-3-6(7)5-10-12-8/h1-5H,9H2,(H,11,12)

> <activity>
0

$$$$

  CDK     0331111707

 21 23  0  0  0  0  0  0  0  0999 V2000
    0.8111    0.6467    0.0000 C   0  0  0  0  0  4  0  0  0  0  0  0
    0.4999   -0.1173    0.0000 N   0  0  0  0  0  4  0  0  0  0  0  0
   -0.3203   -0.0281    0.0000 C   0  0  0  0  0  4  0  0  0  0  0  0
    1.0605   -0.5572    0.0000 C   0  0  0  0  0  4  0  0  0  0  0  0
    0.7400   -1.2658    0.0000 C   0  0  0  0  0  4  0  0  0  0  0  0
    0.1197   -1.6427    0.0000 C   0  0  0  0  0  4  0  0  0  0  0  0
    0.6396   -0.9304    0.0000 C   0  0  0  0  0  4  0  0  0  0  0  0
    1.6113   -0.9304    0.0000 C   0  0  0  0  0  4  0  0  0  0  0  0
    2.1275   -1.3591    0.0000 C   0  0  0  0  0  4  0  0  0  0  0  0
    1.9893   -0.5417    0.0000 C   0  0  0  0  0  4  0  0  0  0  0  0
    2.5393   -2.0740    0.0000 O   0  0  0  0  0  2  0  0  0  0  0  0
    2.1261   -2.7880    0.0000 C   0  0  0  0  0  4  0  0  0  0  0  0
    1.3011   -2.7872    0.0000 O   0  0  0  0  0  2  0  0  0  0  0  0
    2.5379   -3.5029    0.0000 C   0  0  0  0  0  4  0  0  0  0  0  0
    3.3629   -3.5037    0.0000 O   0  0  0  0  0  2  0  0  0  0  0  0
    2.1247   -4.2170    0.0000 C   0  0  0  0  0  4  0  0  0  0  0  0
    2.5365   -4.9319    0.0000 C   0  0  0  0  0  4  0  0  0  0  0  0
    2.1233   -5.6459    0.0000 C   0  0  0  0  0  4  0  0  0  0  0  0
    1.2983   -5.6451    0.0000 C   0  0  0  0  0  4  0  0  0  0  0  0
    0.8865   -4.9302    0.0000 C   0  0  0  0  0  4  0  0  0  0  0  0
    1.2997   -4.2162    0.0000 C   0  0  0  0  0  4  0  0  0  0  0  0
  1  2  1  0  0  0  0 
  2  3  1  0  0  0  0 
  2  4  1  0  0  0  0 
  4  5  1  0  0  0  0 
  5  6  1  0  0  0  0 
  6  7  1  0  0  0  0 
  2  7  1  0  0  0  0 
  7  8  1  0  0  0  0 
  8  9  1  0  0  0  0 
  9 10  1  0  0  0  0 
  4 10  1  0  0  0  0 
  9 11  1  0  0  0  0 
 11 12  1  0  0  0  0 
 12 13  2  0  0  0  0 
 12 14  1  0  0  0  0 
 14 15  1  0  0  0  0 
 14 16  1  0  0  0  0 
 16 17  2  0  0  0  0 
 17 18  1  0  0  0  0 
 18 19  2  0  0  0  0 
 19 20  1  0  0  0  0 
 20 21  2  0  0  0  0 
 16 21  1  0  0  0  0 
M  CHG  1   2   1
M  END
> <Mol Weight>
290.3774

> <Formula>
C17H24NO3

> <CdId>
267

> <RCDK_LipinskiFailures>
0

> <source>
FDA

> <name>
Homatropine methylbromide

> <ABUNDANCE>
100% at pH 4.8

> <BLABBER_CHARGE>
1

> <inchi>
1S/C17H24NO3/c1-18(2)13-8-9-14(18)11-15(10-13)21-17(20)16(19)12-6-4-3-5-7-12/h3-7,13-16,19H,8-11H2,1-2H3/q+1

> <activity>
0

$$$$

  CDK     0331111707

  8  8  0  0  0  0  0  0  0  0999 V2000
   -0.1467    3.1768    0.0000 N   0  0  0  0  0  4  0  0  0  0  0  0
   -0.1467    2.3518    0.0000 C   0  0  0  0  0  4  0  0  0  0  0  0
    0.5678    1.9393    0.0000 C   0  0  0  0  0  4  0  0  0  0  0  0
    0.5678    1.1143    0.0000 C   0  0  0  0  0  4  0  0  0  0  0  0
    1.2352    0.6294    0.0000 C   0  0  0  0  0  4  0  0  0  0  0  0
    0.9803   -0.1553    0.0000 N   0  0  0  0  0  4  0  0  0  0  0  0
    0.1553   -0.1553    0.0000 C   0  0  0  0  0  4  0  0  0  0  0  0
   -0.0997    0.6294    0.0000 N   0  0  0  0  0  3  0  0  0  0  0  0
  1  2  1  0  0  0  0 
  2  3  1  0  0  0  0 
  3  4  1  0  0  0  0 
  4  5  2  0  0  0  0 
  5  6  1  0  0  0  0 
  6  7  2  0  0  0  0 
  7  8  1  0  0  0  0 
  4  8  1  0  0  0  0 
M  CHG  1   1   1
M  CHG  1   6   1
M  END
> <Mol Weight>
111.1451

> <Formula>
C5H9N3

> <CdId>
266

> <RCDK_LipinskiFailures>
0

> <source>
FDA

> <name>
Histamine

> <ABUNDANCE>
99.26% at pH 4.8

> <BLABBER_CHARGE>
2

> <CHECK TAUTOMER>
Multiple tautomers in input structure. Results could be inaccurate.

> <inchi>
1S/C5H9N3/c6-2-1-5-3-7-4-8-5/h3-4H,1-2,6H2,(H,7,8)

> <activity>
0

$$$$

  CDK     0331111707

 14 14  0  0  0  0  0  0  0  0999 V2000
   -2.8579   -3.3000    0.0000 C   0  0  0  0  0  4  0  0  0  0  0  0
   -2.1434   -2.8875    0.0000 C   0  0  0  0  0  4  0  0  0  0  0  0
   -1.4289   -3.3000    0.0000 C   0  0  0  0  0  4  0  0  0  0  0  0
   -0.7145   -2.8875    0.0000 C   0  0  0  0  0  4  0  0  0  0  0  0
    0.0000   -3.3000    0.0000 C   0  0  0  0  0  4  0  0  0  0  0  0
    0.7145   -2.8875    0.0000 C   0  0  0  0  0  4  0  0  0  0  0  0
    1.4289   -3.3000    0.0000 C   0  0  0  0  0  4  0  0  0  0  0  0
    2.1434   -2.8875    0.0000 C   0  0  0  0  0  4  0  0  0  0  0  0
    2.8579   -3.3000    0.0000 C   0  0  0  0  0  4  0  0  0  0  0  0
    2.8579   -4.1250    0.0000 C   0  0  0  0  0  4  0  0  0  0  0  0
    3.5724   -4.5375    0.0000 O   0  0  0  0  0  2  0  0  0  0  0  0
    2.1434   -4.5375    0.0000 C   0  0  0  0  0  4  0  0  0  0  0  0
    1.4289   -4.1250    0.0000 C   0  0  0  0  0  4  0  0  0  0  0  0
    0.7145   -4.5375    0.0000 O   0  0  0  0  0  2  0  0  0  0  0  0
  1  2  1  0  0  0  0 
  2  3  1  0  0  0  0 
  3  4  1  0  0  0  0 
  4  5  1  0  0  0  0 
  5  6  1  0  0  0  0 
  6  7  1  0  0  0  0 
  7  8  2  0  0  0  0 
  8  9  1  0  0  0  0 
  9 10  2  0  0  0  0 
 10 11  1  0  0  0  0 
 10 12  1  0  0  0  0 
 12 13  2  0  0  0  0 
  7 13  1  0  0  0  0 
 13 14  1  0  0  0  0 
M  END
> <Mol Weight>
194.2701

> <Formula>
C12H18O2

> <CdId>
265

> <RCDK_LipinskiFailures>
0

> <source>
FDA

> <name>
Hexylresorcinol

> <ABUNDANCE>
100% at pH 4.8

> <BLABBER_CHARGE>


> <inchi>
1S/C12H18O2/c1-2-3-4-5-6-10-7-8-11(13)9-12(10)14/h7-9,13-14H,2-6H2,1H3

> <activity>
0

$$$$

  CDK     0331111707

 23 25  0  0  0  0  0  0  0  0999 V2000
   -0.4052   -1.2095    0.0000 C   0  0  0  0  0  4  0  0  0  0  0  0
   -0.9355   -1.8414    0.0000 N   0  0  0  0  0  4  0  0  0  0  0  0
   -1.4658   -1.2095    0.0000 C   0  0  0  0  0  4  0  0  0  0  0  0
   -0.2211   -2.2539    0.0000 C   0  0  0  0  0  4  0  0  0  0  0  0
   -0.2211   -3.0789    0.0000 C   0  0  0  0  0  4  0  0  0  0  0  0
   -0.9355   -3.4914    0.0000 N   0  0  0  0  0  3  0  0  0  0  0  0
   -1.6500   -3.0789    0.0000 C   0  0  0  0  0  4  0  0  0  0  0  0
   -1.6500   -2.2539    0.0000 C   0  0  0  0  0  4  0  0  0  0  0  0
   -0.9355   -4.3164    0.0000 C   0  0  0  0  0  4  0  0  0  0  0  0
   -1.6500   -4.7289    0.0000 C   0  0  0  0  0  4  0  0  0  0  0  0
   -2.0625   -4.0145    0.0000 O   0  0  0  0  0  2  0  0  0  0  0  0
   -2.3645   -5.1414    0.0000 C   0  0  0  0  0  4  0  0  0  0  0  0
   -2.3645   -5.9664    0.0000 C   0  0  0  0  0  4  0  0  0  0  0  0
   -3.0789   -6.3789    0.0000 C   0  0  0  0  0  4  0  0  0  0  0  0
   -3.7934   -5.9664    0.0000 C   0  0  0  0  0  4  0  0  0  0  0  0
   -3.7934   -5.1414    0.0000 C   0  0  0  0  0  4  0  0  0  0  0  0
   -3.0789   -4.7289    0.0000 C   0  0  0  0  0  4  0  0  0  0  0  0
   -1.2375   -5.4434    0.0000 C   0  0  0  0  0  4  0  0  0  0  0  0
   -0.4125   -5.4434    0.0000 C   0  0  0  0  0  4  0  0  0  0  0  0
   -0.0000   -6.1579    0.0000 C   0  0  0  0  0  4  0  0  0  0  0  0
   -0.4125   -6.8724    0.0000 C   0  0  0  0  0  4  0  0  0  0  0  0
   -1.2375   -6.8724    0.0000 C   0  0  0  0  0  4  0  0  0  0  0  0
   -1.6500   -6.1579    0.0000 C   0  0  0  0  0  4  0  0  0  0  0  0
  1  2  1  0  0  0  0 
  2  3  1  0  0  0  0 
  2  4  1  0  0  0  0 
  4  5  1  0  0  0  0 
  5  6  1  0  0  0  0 
  6  7  1  0  0  0  0 
  7  8  1  0  0  0  0 
  2  8  1  0  0  0  0 
  6  9  1  0  0  0  0 
  9 10  1  0  0  0  0 
 10 11  1  0  0  0  0 
 10 12  1  0  0  0  0 
 12 13  2  0  0  0  0 
 13 14  1  0  0  0  0 
 14 15  2  0  0  0  0 
 15 16  1  0  0  0  0 
 16 17  2  0  0  0  0 
 12 17  1  0  0  0  0 
 10 18  1  0  0  0  0 
 18 19  1  0  0  0  0 
 19 20  1  0  0  0  0 
 20 21  1  0  0  0  0 
 21 22  1  0  0  0  0 
 22 23  1  0  0  0  0 
 18 23  1  0  0  0  0 
M  CHG  1   2   1
M  END
> <Mol Weight>
317.4888

> <Formula>
C20H33N2O

> <CdId>
264

> <RCDK_LipinskiFailures>
0

> <source>
FDA

> <name>
Hexocyclium

> <ABUNDANCE>
80.89% at pH 4.8

> <BLABBER_CHARGE>
1

> <inchi>
1S/C20H33N2O/c1-22(2)15-13-21(14-16-22)17-20(23,18-9-5-3-6-10-18)19-11-7-4-8-12-19/h3,5-6,9-10,19,23H,4,7-8,11-17H2,1-2H3/q+1

> <activity>
0

$$$$

  CDK     0331111707

 27 30  0  0  0  0  0  0  0  0999 V2000
    0.7897   -2.7446    0.0000 C   0  0  0  0  0  4  0  0  0  0  0  0
    0.4940   -1.9744    0.0000 C   0  0  0  0  0  4  0  0  0  0  0  0
    1.2909   -1.7609    0.0000 C   0  0  0  0  0  4  0  0  0  0  0  0
   -0.2411   -2.3489    0.0000 N   0  0  0  0  0  4  0  0  0  0  0  0
   -0.8244   -1.7656    0.0000 C   0  0  0  0  0  4  0  0  0  0  0  0
   -1.6393   -1.8946    0.0000 C   0  0  0  0  0  4  0  0  0  0  0  0
   -1.9349   -2.6648    0.0000 C   0  0  0  0  0  4  0  0  0  0  0  0
   -2.7498   -2.7939    0.0000 C   0  0  0  0  0  4  0  0  0  0  0  0
   -3.2690   -2.1527    0.0000 C   0  0  0  0  0  4  0  0  0  0  0  0
   -2.9733   -1.3825    0.0000 C   0  0  0  0  0  4  0  0  0  0  0  0
   -2.1585   -1.2535    0.0000 C   0  0  0  0  0  4  0  0  0  0  0  0
   -0.4499   -1.0305    0.0000 C   0  0  0  0  0  4  0  0  0  0  0  0
   -0.8244   -0.2954    0.0000 O   0  0  0  0  0  2  0  0  0  0  0  0
    0.3649   -1.1595    0.0000 N   0  0  0  0  0  3  0  0  0  0  0  0
    0.9483   -0.5762    0.0000 C   0  0  0  0  0  4  0  0  0  0  0  0
    0.9483    0.2488    0.0000 C   0  0  0  0  0  4  0  0  0  0  0  0
    0.3649    0.8322    0.0000 O   0  0  0  0  0  2  0  0  0  0  0  0
    1.7733    0.2488    0.0000 N   0  0  0  0  0  3  0  0  0  0  0  0
    2.5579    0.5038    0.0000 C   0  0  0  0  0  4  0  0  0  0  0  0
    2.8129    1.2884    0.0000 C   0  0  0  0  0  4  0  0  0  0  0  0
    2.2608    1.9015    0.0000 O   0  0  0  0  0  2  0  0  0  0  0  0
    3.6198    1.4599    0.0000 O   0  0  0  0  0  1  0  0  0  0  0  0
    3.0428   -0.1637    0.0000 C   0  0  0  0  0  4  0  0  0  0  0  0
    3.6559    0.3884    0.0000 C   0  0  0  0  0  4  0  0  0  0  0  0
    3.6559   -0.7157    0.0000 C   0  0  0  0  0  4  0  0  0  0  0  0
    2.5579   -0.8311    0.0000 S   0  0  0  0  0  2  0  0  0  0  0  0
    1.7733   -0.5762    0.0000 C   0  0  0  0  0  4  0  0  0  0  0  0
  1  2  1  0  0  0  0 
  2  3  1  0  0  0  0 
  2  4  1  0  0  0  0 
  4  5  1  0  0  0  0 
  5  6  1  0  0  0  0 
  6  7  2  0  0  0  0 
  7  8  1  0  0  0  0 
  8  9  2  0  0  0  0 
  9 10  1  0  0  0  0 
 10 11  2  0  0  0  0 
  6 11  1  0  0  0  0 
  5 12  1  0  0  0  0 
 12 13  2  0  0  0  0 
 12 14  1  0  0  0  0 
  2 14  1  0  0  0  0 
 14 15  1  0  0  0  0 
 15 16  1  0  0  0  0 
 16 17  2  0  0  0  0 
 16 18  1  0  0  0  0 
 18 19  1  0  0  0  0 
 19 20  1  0  0  0  0 
 20 21  2  0  0  0  0 
 20 22  1  0  0  0  0 
 19 23  1  0  0  0  0 
 23 24  1  0  0  0  0 
 23 25  1  0  0  0  0 
 23 26  1  0  0  0  0 
 26 27  1  0  0  0  0 
 15 27  1  0  0  0  0 
 18 27  1  0  0  0  0 
M  CHG  1   4   1
M  CHG  1  22  -1
M  END
> <Mol Weight>
389.469

> <Formula>
C19H23N3O4S

> <CdId>
263

> <RCDK_LipinskiFailures>
0

> <source>
FDA

> <name>
Hetacillin

> <ABUNDANCE>
98.1% at pH 4.8

> <BLABBER_CHARGE>
0

> <inchi>
1S/C19H23N3O4S/c1-18(2)13(17(25)26)21-15(24)12(16(21)27-18)22-14(23)11(20-19(22,3)4)10-8-6-5-7-9-10/h5-9,11-13,16,20H,1-4H3,(H,25,26)

> <activity>
0

$$$$

  CDK     0331111707

 24 26  0  0  0  0  0  0  0  0999 V2000
    4.9502    2.4825    0.0000 O   0  0  0  0  0  2  0  0  0  0  0  0
    4.4358    1.8374    0.0000 C   0  0  0  0  0  4  0  0  0  0  0  0
    4.7938    1.0941    0.0000 C   0  0  0  0  0  4  0  0  0  0  0  0
    4.4358    0.3508    0.0000 N   0  0  0  0  0  3  0  0  0  0  0  0
    3.6315    0.1673    0.0000 C   0  0  0  0  0  4  0  0  0  0  0  0
    3.4479   -0.6370    0.0000 C   0  0  0  0  0  4  0  0  0  0  0  0
    4.0527   -1.1982    0.0000 C   0  0  0  0  0  4  0  0  0  0  0  0
    3.8691   -2.0025    0.0000 C   0  0  0  0  0  4  0  0  0  0  0  0
    3.0808   -2.2457    0.0000 C   0  0  0  0  0  4  0  0  0  0  0  0
    2.4760   -1.6845    0.0000 C   0  0  0  0  0  4  0  0  0  0  0  0
    2.6596   -0.8802    0.0000 C   0  0  0  0  0  4  0  0  0  0  0  0
    2.9865    0.6816    0.0000 C   0  0  0  0  0  4  0  0  0  0  0  0
    2.2720    0.2691    0.0000 C   0  0  0  0  0  4  0  0  0  0  0  0
    1.5575    0.6816    0.0000 C   0  0  0  0  0  4  0  0  0  0  0  0
    1.5575    1.5066    0.0000 C   0  0  0  0  0  4  0  0  0  0  0  0
    2.2720    1.9191    0.0000 C   0  0  0  0  0  4  0  0  0  0  0  0
    2.9865    1.5066    0.0000 C   0  0  0  0  0  4  0  0  0  0  0  0
    3.6315    2.0210    0.0000 N   0  0  0  0  0  3  0  0  0  0  0  0
    3.4479    2.8253    0.0000 C   0  0  0  0  0  4  0  0  0  0  0  0
    2.6596    3.0685    0.0000 C   0  0  0  0  0  4  0  0  0  0  0  0
    1.8712    3.3117    0.0000 F   0  0  0  0  0  1  0  0  0  0  0  0
    2.9027    3.8569    0.0000 F   0  0  0  0  0  1  0  0  0  0  0  0
    2.4164    2.2802    0.0000 F   0  0  0  0  0  1  0  0  0  0  0  0
    0.8431    0.2691    0.0000 Cl  0  0  0  0  0  1  0  0  0  0  0  0
  1  2  2  0  0  0  0 
  2  3  1  0  0  0  0 
  3  4  1  0  0  0  0 
  4  5  2  0  0  0  0 
  5  6  1  0  0  0  0 
  6  7  2  0  0  0  0 
  7  8  1  0  0  0  0 
  8  9  2  0  0  0  0 
  9 10  1  0  0  0  0 
 10 11  2  0  0  0  0 
  6 11  1  0  0  0  0 
  5 12  1  0  0  0  0 
 12 13  2  0  0  0  0 
 13 14  1  0  0  0  0 
 14 15  2  0  0  0  0 
 15 16  1  0  0  0  0 
 16 17  2  0  0  0  0 
 12 17  1  0  0  0  0 
 17 18  1  0  0  0  0 
  2 18  1  0  0  0  0 
 18 19  1  0  0  0  0 
 19 20  1  0  0  0  0 
 20 21  1  0  0  0  0 
 20 22  1  0  0  0  0 
 20 23  1  0  0  0  0 
 14 24  1  0  0  0  0 
M  END
> <Mol Weight>
352.738

> <Formula>
C17H12ClF3N2O

> <CdId>
260

> <RCDK_LipinskiFailures>
0

> <source>
FDA

> <name>
Halazepam

> <ABUNDANCE>
99.76% at pH 4.8

> <BLABBER_CHARGE>


> <inchi>
1S/C17H12ClF3N2O/c18-12-6-7-14-13(8-12)16(11-4-2-1-3-5-11)22-9-15(24)23(14)10-17(19,20)21/h1-8H,9-10H2

> <activity>
0

$$$$

  CDK     0331111707

 14 14  0  0  0  0  0  0  0  0999 V2000
   -3.0610   -1.4494    0.0000 N   0  0  0  0  0  4  0  0  0  0  0  0
   -2.3466   -1.8619    0.0000 C   0  0  0  0  0  4  0  0  0  0  0  0
   -2.3466   -2.6869    0.0000 N   0  0  0  0  0  3  0  0  0  0  0  0
   -1.6321   -1.4494    0.0000 N   0  0  0  0  0  3  0  0  0  0  0  0
   -0.9176   -1.8619    0.0000 C   0  0  0  0  0  4  0  0  0  0  0  0
   -0.2031   -1.4494    0.0000 C   0  0  0  0  0  4  0  0  0  0  0  0
    0.5113   -1.8619    0.0000 N   0  0  0  0  0  4  0  0  0  0  0  0
    1.1658   -1.3596    0.0000 C   0  0  0  0  0  4  0  0  0  0  0  0
    1.9838   -1.4673    0.0000 C   0  0  0  0  0  4  0  0  0  0  0  0
    2.4860   -2.1218    0.0000 C   0  0  0  0  0  4  0  0  0  0  0  0
    2.3783   -2.9398    0.0000 C   0  0  0  0  0  4  0  0  0  0  0  0
    1.7238   -3.4420    0.0000 C   0  0  0  0  0  4  0  0  0  0  0  0
    0.9059   -3.3343    0.0000 C   0  0  0  0  0  4  0  0  0  0  0  0
    0.4036   -2.6798    0.0000 C   0  0  0  0  0  4  0  0  0  0  0  0
  1  2  2  0  0  0  0 
  2  3  1  0  0  0  0 
  2  4  1  0  0  0  0 
  4  5  1  0  0  0  0 
  5  6  1  0  0  0  0 
  6  7  1  0  0  0  0 
  7  8  1  0  0  0  0 
  8  9  1  0  0  0  0 
  9 10  1  0  0  0  0 
 10 11  1  0  0  0  0 
 11 12  1  0  0  0  0 
 12 13  1  0  0  0  0 
 13 14  1  0  0  0  0 
  7 14  1  0  0  0  0 
M  CHG  1   1   1
M  CHG  1   7   1
M  END
> <Mol Weight>
198.3085

> <Formula>
C10H22N4

> <CdId>
259

> <RCDK_LipinskiFailures>
0

> <source>
FDA

> <name>
Guanethidine

> <ABUNDANCE>
99.98% at pH 4.8

> <BLABBER_CHARGE>
2

> <CHECK TAUTOMER>
Multiple tautomers in input structure. Results could be inaccurate.

> <inchi>
1S/C10H22N4/c11-10(12)13-6-9-14-7-4-2-1-3-5-8-14/h1-9H2,(H4,11,12,13)

> <activity>
0

$$$$

  CDK     0331111707

 11 10  0  0  0  0  0  0  0  0999 V2000
    3.3000    1.4289    0.0000 C   0  0  0  0  0  4  0  0  0  0  0  0
    2.8875    0.7145    0.0000 C   0  0  0  0  0  4  0  0  0  0  0  0
    2.0625    0.7145    0.0000 C   0  0  0  0  0  4  0  0  0  0  0  0
    2.0625    1.5395    0.0000 C   0  0  0  0  0  4  0  0  0  0  0  0
    2.0625   -0.1105    0.0000 C   0  0  0  0  0  4  0  0  0  0  0  0
    1.2375    0.7145    0.0000 N   0  0  0  0  0  3  0  0  0  0  0  0
    0.8250    0.0000    0.0000 C   0  0  0  0  0  4  0  0  0  0  0  0
    1.2375   -0.7145    0.0000 N   0  0  0  0  0  3  0  0  0  0  0  0
    0.0000    0.0000    0.0000 N   0  0  0  0  0  3  0  0  0  0  0  0
   -0.4125   -0.7145    0.0000 C   0  0  0  0  0  4  0  0  0  0  0  0
   -0.8250   -1.4289    0.0000 N   0  0  0  0  0  3  0  0  0  0  0  0
  1  2  1  0  0  0  0 
  2  3  1  0  0  0  0 
  3  4  1  0  0  0  0 
  3  5  1  0  0  0  0 
  3  6  1  0  0  0  0 
  6  7  1  0  0  0  0 
  7  8  1  0  0  0  0 
  7  9  2  0  0  0  0 
  9 10  1  4  0  0  0 
 10 11  3  0  0  0  0 
M  END
> <Mol Weight>
154.2129

> <Formula>
C7H14N4

> <CdId>
258

> <RCDK_LipinskiFailures>
0

> <source>
FDA

> <name>
Guancydine

> <ABUNDANCE>
100% at pH 4.8

> <BLABBER_CHARGE>


> <CHECK TAUTOMER>
Multiple tautomers in input structure. Results could be inaccurate.

> <inchi>
1S/C7H14N4/c1-4-7(2,3)11-6(9)10-5-8/h4H2,1-3H3,(H3,9,10,11)

> <activity>
0

$$$$

  CDK     0331111707

 24 26  0  0  0  0  0  0  0  0999 V2000
    0.0000   -1.6500    0.0000 C   0  0  0  0  0  4  0  0  0  0  0  0
    0.7145   -1.2375    0.0000 O   0  0  0  0  0  2  0  0  0  0  0  0
    0.7145   -0.4125    0.0000 C   0  0  0  0  0  4  0  0  0  0  0  0
   -0.0000    0.0000    0.0000 C   0  0  0  0  0  4  0  0  0  0  0  0
    0.0000    0.8250    0.0000 C   0  0  0  0  0  4  0  0  0  0  0  0
   -0.7145    1.2375    0.0000 O   0  0  0  0  0  2  0  0  0  0  0  0
   -1.4289    0.8250    0.0000 C   0  0  0  0  0  4  0  0  0  0  0  0
    0.7145    1.2375    0.0000 C   0  0  0  0  0  4  0  0  0  0  0  0
    1.4289    0.8250    0.0000 C   0  0  0  0  0  4  0  0  0  0  0  0
    2.2136    1.0799    0.0000 O   0  0  0  0  0  2  0  0  0  0  0  0
    2.6985    0.4125    0.0000 C   0  0  0  0  0  4  0  0  0  0  0  0
    3.1110    1.1270    0.0000 C   0  0  0  0  0  4  0  0  0  0  0  0
    2.6985    1.8414    0.0000 C   0  0  0  0  0  4  0  0  0  0  0  0
    3.9360    1.1270    0.0000 C   0  0  0  0  0  4  0  0  0  0  0  0
    4.3485    0.4125    0.0000 C   0  0  0  0  0  4  0  0  0  0  0  0
    5.1735    0.4125    0.0000 O   0  0  0  0  0  2  0  0  0  0  0  0
    3.9360   -0.3020    0.0000 C   0  0  0  0  0  4  0  0  0  0  0  0
    3.1110   -0.3020    0.0000 C   0  0  0  0  0  4  0  0  0  0  0  0
    2.6985   -1.0164    0.0000 O   0  0  0  0  0  2  0  0  0  0  0  0
    3.1110   -1.7309    0.0000 C   0  0  0  0  0  4  0  0  0  0  0  0
    2.2136   -0.2549    0.0000 C   0  0  0  0  0  4  0  0  0  0  0  0
    2.2136   -1.0799    0.0000 O   0  0  0  0  0  2  0  0  0  0  0  0
    1.4289   -0.0000    0.0000 C   0  0  0  0  0  4  0  0  0  0  0  0
    0.7145    2.0625    0.0000 Cl  0  0  0  0  0  1  0  0  0  0  0  0
  1  2  1  0  0  0  0 
  2  3  1  0  0  0  0 
  3  4  2  0  0  0  0 
  4  5  1  0  0  0  0 
  5  6  1  0  0  0  0 
  6  7  1  0  0  0  0 
  5  8  2  0  0  0  0 
  8  9  1  0  0  0  0 
  9 10  1  0  0  0  0 
 10 11  1  0  0  0  0 
 11 12  1  0  0  0  0 
 12 13  1  0  0  0  0 
 12 14  1  0  0  0  0 
 14 15  1  0  0  0  0 
 15 16  2  0  0  0  0 
 15 17  1  0  0  0  0 
 17 18  2  0  0  0  0 
 11 18  1  0  0  0  0 
 18 19  1  0  0  0  0 
 19 20  1  0  0  0  0 
 11 21  1  0  0  0  0 
 21 22  2  0  0  0  0 
 21 23  1  0  0  0  0 
  3 23  1  0  0  0  0 
  9 23  2  0  0  0  0 
  8 24  1  0  0  0  0 
M  END
> <Mol Weight>
352.766

> <Formula>
C17H17ClO6

> <CdId>
257

> <RCDK_LipinskiFailures>
0

> <source>
FDA

> <name>
Griseofulvin

> <ABUNDANCE>
No species found

> <BLABBER_CHARGE>


> <inchi>
1S/C17H17ClO6/c1-8-5-9(19)6-12(23-4)17(8)16(20)13-10(21-2)7-11(22-3)14(18)15(13)24-17/h6-8H,5H2,1-4H3

> <activity>
0

$$$$

  CDK     0331111707

 21 22  0  0  0  0  0  0  0  0999 V2000
   -4.2868   -4.9500    0.0000 C   0  0  0  0  0  4  0  0  0  0  0  0
   -3.5724   -5.3625    0.0000 O   0  0  0  0  0  2  0  0  0  0  0  0
   -2.8579   -4.9500    0.0000 C   0  0  0  0  0  4  0  0  0  0  0  0
   -2.1434   -5.3625    0.0000 C   0  0  0  0  0  4  0  0  0  0  0  0
   -1.4289   -4.9500    0.0000 O   0  0  0  0  0  2  0  0  0  0  0  0
   -0.7145   -5.3625    0.0000 C   0  0  0  0  0  4  0  0  0  0  0  0
    0.0000   -4.9500    0.0000 C   0  0  0  0  0  4  0  0  0  0  0  0
    0.7145   -5.3625    0.0000 N   0  0  0  0  0  3  0  0  0  0  0  0
    0.7145   -6.1875    0.0000 C   0  0  0  0  0  4  0  0  0  0  0  0
    0.0000   -6.6000    0.0000 N   0  0  0  0  0  3  0  0  0  0  0  0
   -0.7145   -6.1875    0.0000 C   0  0  0  0  0  4  0  0  0  0  0  0
    1.4289   -6.6000    0.0000 N   0  0  0  0  0  3  0  0  0  0  0  0
    2.1434   -6.1875    0.0000 S   0  0  0  0  0  6  0  0  0  0  0  0
    2.5559   -6.9020    0.0000 O   0  0  0  0  0  2  0  0  0  0  0  0
    1.7309   -5.4730    0.0000 O   0  0  0  0  0  2  0  0  0  0  0  0
    2.8579   -5.7750    0.0000 C   0  0  0  0  0  4  0  0  0  0  0  0
    2.8579   -4.9500    0.0000 C   0  0  0  0  0  4  0  0  0  0  0  0
    3.5724   -4.5375    0.0000 C   0  0  0  0  0  4  0  0  0  0  0  0
    4.2868   -4.9500    0.0000 C   0  0  0  0  0  4  0  0  0  0  0  0
    4.2868   -5.7750    0.0000 C   0  0  0  0  0  4  0  0  0  0  0  0
    3.5724   -6.1875    0.0000 C   0  0  0  0  0  4  0  0  0  0  0  0
  1  2  1  0  0  0  0 
  2  3  1  0  0  0  0 
  3  4  1  0  0  0  0 
  4  5  1  0  0  0  0 
  5  6  1  0  0  0  0 
  6  7  2  0  0  0  0 
  7  8  1  0  0  0  0 
  8  9  2  0  0  0  0 
  9 10  1  0  0  0  0 
 10 11  2  0  0  0  0 
  6 11  1  0  0  0  0 
  9 12  1  0  0  0  0 
 12 13  1  0  0  0  0 
 13 14  2  0  0  0  0 
 13 15  2  0  0  0  0 
 13 16  1  0  0  0  0 
 16 17  2  0  0  0  0 
 17 18  1  0  0  0  0 
 18 19  2  0  0  0  0 
 19 20  1  0  0  0  0 
 20 21  2  0  0  0  0 
 16 21  1  0  0  0  0 
M  END
> <Mol Weight>
309.341

> <Formula>
C13H15N3O4S

> <CdId>
256

> <RCDK_LipinskiFailures>
0

> <source>
FDA

> <name>
Glycodiazine

> <ABUNDANCE>
97.94% at pH 4.8

> <BLABBER_CHARGE>


> <inchi>
1S/C13H15N3O4S/c1-19-7-8-20-11-9-14-13(15-10-11)16-21(17,18)12-5-3-2-4-6-12/h2-6,9-10H,7-8H2,1H3,(H,14,15,16)

> <activity>
0

$$$$

  CDK     0331111707

  5  4  0  0  0  0  0  0  0  0999 V2000
    0.8250    1.4289    0.0000 N   0  0  0  0  0  4  0  0  0  0  0  0
    1.2375    0.7145    0.0000 C   0  0  0  0  0  4  0  0  0  0  0  0
    0.8250    0.0000    0.0000 C   0  0  0  0  0  4  0  0  0  0  0  0
    1.2375   -0.7145    0.0000 O   0  0  0  0  0  2  0  0  0  0  0  0
    0.0000    0.0000    0.0000 O   0  0  0  0  0  1  0  0  0  0  0  0
  1  2  1  0  0  0  0 
  2  3  1  0  0  0  0 
  3  4  2  0  0  0  0 
  3  5  1  0  0  0  0 
M  CHG  1   1   1
M  CHG  1   5  -1
M  END
> <Mol Weight>
75.0666

> <Formula>
C2H5NO2

> <CdId>
255

> <RCDK_LipinskiFailures>
0

> <source>
FDA

> <name>
Glycine

> <ABUNDANCE>
99.72% at pH 4.8

> <BLABBER_CHARGE>
0

> <inchi>
1S/C2H5NO2/c3-1-2(4)5/h1,3H2,(H,4,5)

> <activity>
0

$$$$

  CDK     0331111707

 10  9  0  0  0  0  0  0  0  0999 V2000
    1.7605   -1.8414    0.0000 O   0  0  0  0  0  2  0  0  0  0  0  0
    2.4750   -1.4289    0.0000 C   0  0  0  0  0  4  0  0  0  0  0  0
    3.1895   -1.8414    0.0000 C   0  0  0  0  0  4  0  0  0  0  0  0
    3.1895   -2.6664    0.0000 O   0  0  0  0  0  2  0  0  0  0  0  0
    3.9039   -1.4289    0.0000 C   0  0  0  0  0  4  0  0  0  0  0  0
    4.6184   -1.8414    0.0000 O   0  0  0  0  0  2  0  0  0  0  0  0
    5.3329   -1.4289    0.0000 P   0  0  0  0  0  5  0  0  0  0  0  0
    6.0474   -1.0164    0.0000 O   0  0  0  0  0  2  0  0  0  0  0  0
    5.7454   -2.1434    0.0000 O   0  0  0  0  0  1  0  0  0  0  0  0
    4.9204   -0.7145    0.0000 O   0  0  0  0  0  2  0  0  0  0  0  0
  1  2  1  0  0  0  0 
  2  3  1  0  0  0  0 
  3  4  1  0  0  0  0 
  3  5  1  0  0  0  0 
  5  6  1  0  0  0  0 
  6  7  1  0  0  0  0 
  7  8  2  0  0  0  0 
  7  9  1  0  0  0  0 
  7 10  1  0  0  0  0 
M  CHG  1   9  -1
M  END
> <Mol Weight>
172.0737

> <Formula>
C3H9O6P

> <CdId>
254

> <RCDK_LipinskiFailures>
0

> <source>
FDA

> <name>
Glycerophosphoric acid, alpha-

> <ABUNDANCE>
98.73% at pH 4.8

> <BLABBER_CHARGE>
-1

> <inchi>
1S/C3H9O6P/c4-1-3(5)2-9-10(6,7)8/h3-5H,1-2H2,(H2,6,7,8)

> <activity>
0

$$$$

  CDK     0331111707

  6  5  0  0  0  0  0  0  0  0999 V2000
    2.4750   -1.4289    0.0000 O   0  0  0  0  0  2  0  0  0  0  0  0
    2.0625   -0.7145    0.0000 C   0  0  0  0  0  4  0  0  0  0  0  0
    1.2375   -0.7145    0.0000 C   0  0  0  0  0  4  0  0  0  0  0  0
    0.8250   -1.4289    0.0000 O   0  0  0  0  0  2  0  0  0  0  0  0
    0.8250    0.0000    0.0000 C   0  0  0  0  0  4  0  0  0  0  0  0
    0.0000    0.0000    0.0000 O   0  0  0  0  0  2  0  0  0  0  0  0
  1  2  1  0  0  0  0 
  2  3  1  0  0  0  0 
  3  4  1  0  0  0  0 
  3  5  1  0  0  0  0 
  5  6  1  0  0  0  0 
M  END
> <Mol Weight>
92.0938

> <Formula>
C3H8O3

> <CdId>
253

> <RCDK_LipinskiFailures>
0

> <source>
FDA

> <name>
Glycerol

> <ABUNDANCE>
100% at pH 4.8

> <BLABBER_CHARGE>


> <inchi>
1S/C3H8O3/c4-1-3(6)2-5/h3-6H,1-2H2

> <activity>
0

$$$$

  CDK     0331111707

 22 24  0  0  0  0  0  0  0  0999 V2000
    0.5704   -3.3642    0.0000 C   0  0  0  0  0  4  0  0  0  0  0  0
    1.2848   -2.9517    0.0000 C   0  0  0  0  0  4  0  0  0  0  0  0
    1.2848   -2.1267    0.0000 C   0  0  0  0  0  4  0  0  0  0  0  0
    1.9993   -1.7142    0.0000 C   0  0  0  0  0  4  0  0  0  0  0  0
    2.7138   -2.1267    0.0000 C   0  0  0  0  0  4  0  0  0  0  0  0
    2.7138   -2.9517    0.0000 C   0  0  0  0  0  4  0  0  0  0  0  0
    1.9993   -3.3642    0.0000 C   0  0  0  0  0  4  0  0  0  0  0  0
    3.4282   -1.7142    0.0000 S   0  0  0  0  0  6  0  0  0  0  0  0
    3.8407   -2.4287    0.0000 O   0  0  0  0  0  2  0  0  0  0  0  0
    3.0157   -0.9998    0.0000 O   0  0  0  0  0  2  0  0  0  0  0  0
    4.1427   -1.3017    0.0000 N   0  0  0  0  0  3  0  0  0  0  0  0
    4.8572   -1.7142    0.0000 C   0  0  0  0  0  4  0  0  0  0  0  0
    4.8572   -2.5392    0.0000 O   0  0  0  0  0  2  0  0  0  0  0  0
    5.5717   -1.3017    0.0000 N   0  0  0  0  0  3  0  0  0  0  0  0
    6.2861   -1.7142    0.0000 N   0  0  0  0  0  3  0  0  0  0  0  0
    7.0398   -1.3787    0.0000 C   0  0  0  0  0  4  0  0  0  0  0  0
    7.5918   -1.9918    0.0000 C   0  0  0  0  0  4  0  0  0  0  0  0
    8.3988   -2.1633    0.0000 C   0  0  0  0  0  4  0  0  0  0  0  0
    8.4850   -2.9838    0.0000 C   0  0  0  0  0  4  0  0  0  0  0  0
    7.7314   -3.3193    0.0000 C   0  0  0  0  0  4  0  0  0  0  0  0
    7.1793   -2.7062    0.0000 C   0  0  0  0  0  4  0  0  0  0  0  0
    6.3724   -2.5347    0.0000 C   0  0  0  0  0  4  0  0  0  0  0  0
  1  2  1  0  0  0  0 
  2  3  2  0  0  0  0 
  3  4  1  0  0  0  0 
  4  5  2  0  0  0  0 
  5  6  1  0  0  0  0 
  6  7  2  0  0  0  0 
  2  7  1  0  0  0  0 
  5  8  1  0  0  0  0 
  8  9  2  0  0  0  0 
  8 10  2  0  0  0  0 
  8 11  1  0  0  0  0 
 11 12  1  0  0  0  0 
 12 13  2  0  0  0  0 
 12 14  1  0  0  0  0 
 14 15  1  0  0  0  0 
 15 16  1  0  0  0  0 
 16 17  1  0  0  0  0 
 17 18  1  0  0  0  0 
 18 19  1  0  0  0  0 
 19 20  1  0  0  0  0 
 20 21  1  0  0  0  0 
 17 21  1  0  0  0  0 
 21 22  1  0  0  0  0 
 15 22  1  0  0  0  0 
M  END
> <Mol Weight>
323.411

> <Formula>
C15H21N3O3S

> <CdId>
252

> <RCDK_LipinskiFailures>
0

> <source>
FDA

> <name>
Gliclazide

> <ABUNDANCE>
89.67% at pH 4.8

> <BLABBER_CHARGE>


> <inchi>
1S/C15H21N3O3S/c1-11-5-7-14(8-6-11)22(20,21)17-15(19)16-18-9-12-3-2-4-13(12)10-18/h5-8,12-13H,2-4,9-10H2,1H3,(H2,16,17,19)

> <activity>
0

$$$$

  CDK     0331111707

 18 18  0  0  0  0  0  0  0  0999 V2000
   -0.4599   -1.3871    0.0000 C   0  0  0  0  0  4  0  0  0  0  0  0
    0.1121   -0.7926    0.0000 C   0  0  0  0  0  4  0  0  0  0  0  0
   -0.1167    0.0000    0.0000 C   0  0  0  0  0  4  0  0  0  0  0  0
    0.4553    0.5945    0.0000 C   0  0  0  0  0  4  0  0  0  0  0  0
    1.2562    0.3963    0.0000 C   0  0  0  0  0  4  0  0  0  0  0  0
    1.8282    0.9908    0.0000 C   0  0  0  0  0  4  0  0  0  0  0  0
    1.4850   -0.3963    0.0000 C   0  0  0  0  0  4  0  0  0  0  0  0
    2.2858   -0.5945    0.0000 O   0  0  0  0  0  2  0  0  0  0  0  0
    2.8579    0.0000    0.0000 C   0  0  0  0  0  4  0  0  0  0  0  0
    3.6587   -0.1982    0.0000 C   0  0  0  0  0  4  0  0  0  0  0  0
    4.2308    0.3963    0.0000 C   0  0  0  0  0  4  0  0  0  0  0  0
    5.0316    0.1982    0.0000 C   0  0  0  0  0  4  0  0  0  0  0  0
    4.8335   -0.6027    0.0000 C   0  0  0  0  0  4  0  0  0  0  0  0
    5.2298    0.9990    0.0000 C   0  0  0  0  0  4  0  0  0  0  0  0
    5.8325    0.0000    0.0000 C   0  0  0  0  0  4  0  0  0  0  0  0
    6.4045    0.5945    0.0000 O   0  0  0  0  0  2  0  0  0  0  0  0
    6.0613   -0.7926    0.0000 O   0  0  0  0  0  2  0  0  0  0  0  0
    0.9130   -0.9908    0.0000 C   0  0  0  0  0  4  0  0  0  0  0  0
  1  2  1  0  0  0  0 
  2  3  2  0  0  0  0 
  3  4  1  0  0  0  0 
  4  5  2  0  0  0  0 
  5  6  1  0  0  0  0 
  5  7  1  0  0  0  0 
  7  8  1  0  0  0  0 
  8  9  1  0  0  0  0 
  9 10  1  0  0  0  0 
 10 11  1  0  0  0  0 
 11 12  1  0  0  0  0 
 12 13  1  0  0  0  0 
 12 14  1  0  0  0  0 
 12 15  1  0  0  0  0 
 15 16  2  0  0  0  0 
 15 17  1  0  0  0  0 
  7 18  2  0  0  0  0 
  2 18  1  0  0  0  0 
M  END
> <Mol Weight>
250.3334

> <Formula>
C15H22O3

> <CdId>
248

> <RCDK_LipinskiFailures>
0

> <source>
BYLER

> <name>
gemfibrozil

> <ABUNDANCE>
59.7% at pH 4.8

> <BLABBER_CHARGE>


> <inchi>
1S/C15H22O3/c1-11-6-7-12(2)13(10-11)18-9-5-8-15(3,4)14(16)17/h6-7,10H,5,8-9H2,1-4H3,(H,16,17)

> <activity>
0

$$$$

  CDK     0331111707

 12 12  0  0  0  0  0  0  0  0999 V2000
    2.1434    1.2375    0.0000 N   0  0  0  0  0  4  0  0  0  0  0  0
    1.4289    0.8250    0.0000 C   0  0  0  0  0  4  0  0  0  0  0  0
    1.4289   -0.0000    0.0000 C   0  0  0  0  0  4  0  0  0  0  0  0
    2.1434   -0.4125    0.0000 O   0  0  0  0  0  2  0  0  0  0  0  0
    0.7145   -0.4125    0.0000 O   0  0  0  0  0  2  0  0  0  0  0  0
    0.0000    0.0000    0.0000 C   0  0  0  0  0  4  0  0  0  0  0  0
   -0.7145   -0.4125    0.0000 C   0  0  0  0  0  4  0  0  0  0  0  0
   -0.7145   -1.2375    0.0000 O   0  0  0  0  0  2  0  0  0  0  0  0
    0.0000    0.8250    0.0000 C   0  0  0  0  0  4  0  0  0  0  0  0
   -0.7145    1.2375    0.0000 O   0  0  0  0  0  2  0  0  0  0  0  0
    0.7145    1.2375    0.0000 C   0  0  0  0  0  4  0  0  0  0  0  0
    0.7145    2.0625    0.0000 O   0  0  0  0  0  2  0  0  0  0  0  0
  1  2  1  0  0  0  0 
  2  3  1  0  0  0  0 
  3  4  1  0  0  0  0 
  3  5  1  0  0  0  0 
  5  6  1  0  0  0  0 
  6  7  1  0  0  0  0 
  7  8  1  0  0  0  0 
  6  9  1  0  0  0  0 
  9 10  1  0  0  0  0 
  9 11  1  0  0  0  0 
  2 11  1  0  0  0  0 
 11 12  1  0  0  0  0 
M  CHG  1   1   1
M  END
> <Mol Weight>
179.1711

> <Formula>
C6H13NO5

> <CdId>
246

> <RCDK_LipinskiFailures>
0

> <source>
BYLER

> <name>
galactosamine

> <ABUNDANCE>
99.2% at pH 4.8

> <BLABBER_CHARGE>
1

> <inchi>
1S/C6H13NO5/c7-3-5(10)4(9)2(1-8)12-6(3)11/h2-6,8-11H,1,7H2

> <activity>
0

$$$$

  CDK     0331111707

 21 22  0  0  0  0  0  0  0  0999 V2000
   -0.7145   10.0661    0.0000 N   0  0  0  0  0  3  0  0  0  0  0  0
   -0.7145    9.2411    0.0000 S   0  0  0  0  0  6  0  0  0  0  0  0
   -1.5395    9.2411    0.0000 O   0  0  0  0  0  2  0  0  0  0  0  0
    0.1105    9.2411    0.0000 O   0  0  0  0  0  2  0  0  0  0  0  0
   -0.7145    8.4161    0.0000 C   0  0  0  0  0  4  0  0  0  0  0  0
   -0.0000    8.0036    0.0000 C   0  0  0  0  0  4  0  0  0  0  0  0
   -0.0000    7.1786    0.0000 C   0  0  0  0  0  4  0  0  0  0  0  0
    0.7145    6.7661    0.0000 C   0  0  0  0  0  4  0  0  0  0  0  0
    0.7145    5.9411    0.0000 O   0  0  0  0  0  2  0  0  0  0  0  0
    1.4289    7.1786    0.0000 O   0  0  0  0  0  1  0  0  0  0  0  0
   -0.7145    6.7661    0.0000 C   0  0  0  0  0  4  0  0  0  0  0  0
   -1.4289    7.1786    0.0000 C   0  0  0  0  0  4  0  0  0  0  0  0
   -1.4289    8.0036    0.0000 C   0  0  0  0  0  4  0  0  0  0  0  0
   -2.1434    8.4161    0.0000 Cl  0  0  0  0  0  1  0  0  0  0  0  0
   -0.7145    5.9411    0.0000 N   0  0  0  0  0  3  0  0  0  0  0  0
   -0.0000    5.5286    0.0000 C   0  0  0  0  0  4  0  0  0  0  0  0
   -0.0000    4.7036    0.0000 C   0  0  0  0  0  4  0  0  0  0  0  0
    0.6674    4.2187    0.0000 C   0  0  0  0  0  4  0  0  0  0  0  0
    0.4125    3.4340    0.0000 C   0  0  0  0  0  4  0  0  0  0  0  0
   -0.4125    3.4340    0.0000 C   0  0  0  0  0  4  0  0  0  0  0  0
   -0.6674    4.2187    0.0000 O   0  0  0  0  0  2  0  0  0  0  0  0
  1  2  1  0  0  0  0 
  2  3  2  0  0  0  0 
  2  4  2  0  0  0  0 
  2  5  1  0  0  0  0 
  5  6  2  0  0  0  0 
  6  7  1  0  0  0  0 
  7  8  1  0  0  0  0 
  8  9  2  0  0  0  0 
  8 10  1  0  0  0  0 
  7 11  2  0  0  0  0 
 11 12  1  0  0  0  0 
 12 13  2  0  0  0  0 
  5 13  1  0  0  0  0 
 13 14  1  0  0  0  0 
 11 15  1  0  0  0  0 
 15 16  1  0  0  0  0 
 16 17  1  0  0  0  0 
 17 18  2  0  0  0  0 
 18 19  1  0  0  0  0 
 19 20  2  0  0  0  0 
 20 21  1  0  0  0  0 
 17 21  1  0  0  0  0 
M  CHG  1  10  -1
M  END
> <Mol Weight>
330.744

> <Formula>
C12H11ClN2O5S

> <CdId>
245

> <RCDK_LipinskiFailures>
0

> <source>
FDA

> <name>
Furosemide

> <ABUNDANCE>
82.46% at pH 4.8

> <BLABBER_CHARGE>
-1

> <inchi>
1S/C12H11ClN2O5S/c13-9-5-10(15-6-7-2-1-3-20-7)8(12(16)17)4-11(9)21(14,18)19/h1-5,15H,6H2,(H,16,17)(H2,14,18,19)

> <activity>
0

$$$$

  CDK     0331111707

 28 30  0  0  0  0  0  0  0  0999 V2000
    4.2868   -4.9500    0.0000 C   0  0  0  0  0  4  0  0  0  0  0  0
    4.2868   -4.1250    0.0000 N   0  0  0  0  0  3  0  0  0  0  0  0
    3.5724   -3.7125    0.0000 C   0  0  0  0  0  4  0  0  0  0  0  0
    2.8579   -4.1250    0.0000 C   0  0  0  0  0  4  0  0  0  0  0  0
    2.8579   -4.9500    0.0000 O   0  0  0  0  0  2  0  0  0  0  0  0
    2.1434   -3.7125    0.0000 N   0  0  0  0  0  3  0  0  0  0  0  0
    1.4289   -4.1250    0.0000 C   0  0  0  0  0  4  0  0  0  0  0  0
    0.7145   -3.7125    0.0000 C   0  0  0  0  0  4  0  0  0  0  0  0
    0.7145   -2.8875    0.0000 O   0  0  0  0  0  2  0  0  0  0  0  0
    1.4289   -2.4750    0.0000 C   0  0  0  0  0  4  0  0  0  0  0  0
    2.1434   -2.8875    0.0000 C   0  0  0  0  0  4  0  0  0  0  0  0
    5.0013   -3.7125    0.0000 C   0  0  0  0  0  4  0  0  0  0  0  0
    5.7158   -4.1250    0.0000 C   0  0  0  0  0  4  0  0  0  0  0  0
    6.4302   -3.7125    0.0000 C   0  0  0  0  0  4  0  0  0  0  0  0
    7.1447   -4.1250    0.0000 C   0  0  0  0  0  4  0  0  0  0  0  0
    7.1447   -4.9500    0.0000 C   0  0  0  0  0  4  0  0  0  0  0  0
    6.4302   -5.3625    0.0000 C   0  0  0  0  0  4  0  0  0  0  0  0
    5.7158   -4.9500    0.0000 C   0  0  0  0  0  4  0  0  0  0  0  0
    5.0013   -5.3625    0.0000 Cl  0  0  0  0  0  1  0  0  0  0  0  0
    6.4302   -2.8875    0.0000 N   0  0  0  0  0  3  0  0  0  0  0  0
    7.1447   -2.4750    0.0000 C   0  0  0  0  0  4  0  0  0  0  0  0
    7.1447   -1.6500    0.0000 O   0  0  0  0  0  2  0  0  0  0  0  0
    7.8592   -2.8875    0.0000 C   0  0  0  0  0  4  0  0  0  0  0  0
    8.5737   -2.4750    0.0000 C   0  0  0  0  0  4  0  0  0  0  0  0
    9.2881   -2.8875    0.0000 C   0  0  0  0  0  4  0  0  0  0  0  0
    9.2881   -3.7125    0.0000 C   0  0  0  0  0  4  0  0  0  0  0  0
    8.5737   -4.1250    0.0000 C   0  0  0  0  0  4  0  0  0  0  0  0
    7.8592   -3.7125    0.0000 C   0  0  0  0  0  4  0  0  0  0  0  0
  1  2  1  0  0  0  0 
  2  3  1  0  0  0  0 
  3  4  1  0  0  0  0 
  4  5  2  0  0  0  0 
  4  6  1  0  0  0  0 
  6  7  1  0  0  0  0 
  7  8  1  0  0  0  0 
  8  9  1  0  0  0  0 
  9 10  1  0  0  0  0 
 10 11  1  0  0  0  0 
  6 11  1  0  0  0  0 
  2 12  1  0  0  0  0 
 12 13  1  0  0  0  0 
 13 14  2  0  0  0  0 
 14 15  1  0  0  0  0 
 15 16  2  0  0  0  0 
 16 17  1  0  0  0  0 
 17 18  2  0  0  0  0 
 13 18  1  0  0  0  0 
 18 19  1  0  0  0  0 
 14 20  1  0  0  0  0 
 20 21  1  0  0  0  0 
 21 22  2  0  0  0  0 
 21 23  1  0  0  0  0 
 23 24  2  0  0  0  0 
 24 25  1  0  0  0  0 
 25 26  2  0  0  0  0 
 26 27  1  0  0  0  0 
 27 28  2  0  0  0  0 
 23 28  1  0  0  0  0 
M  END
> <Mol Weight>
401.887

> <Formula>
C21H24ClN3O3

> <CdId>
243

> <RCDK_LipinskiFailures>
0

> <source>
FDA

> <name>
Fominoben

> <ABUNDANCE>
85.78% at pH 4.8

> <BLABBER_CHARGE>


> <inchi>
1S/C21H24ClN3O3/c1-24(15-20(26)25-10-12-28-13-11-25)14-17-18(22)8-5-9-19(17)23-21(27)16-6-3-2-4-7-16/h2-9H,10-15H2,1H3,(H,23,27)

> <activity>
0

$$$$

  CDK     0331111707

 26 29  0  0  0  0  0  0  0  0999 V2000
    1.7238    3.1717    0.0000 O   0  0  0  0  0  2  0  0  0  0  0  0
    2.3483    2.6325    0.0000 C   0  0  0  0  0  4  0  0  0  0  0  0
    2.1936    1.8222    0.0000 C   0  0  0  0  0  4  0  0  0  0  0  0
    2.8180    1.2830    0.0000 N   0  0  0  0  0  3  0  0  0  0  0  0
    3.5747    1.6117    0.0000 C   0  0  0  0  0  4  0  0  0  0  0  0
    3.6069    2.4361    0.0000 O   0  0  0  0  0  2  0  0  0  0  0  0
    4.3035    1.2250    0.0000 C   0  0  0  0  0  4  0  0  0  0  0  0
    4.4555    0.4141    0.0000 N   0  0  0  0  0  3  0  0  0  0  0  0
    5.2160    0.0943    0.0000 C   0  0  0  0  0  4  0  0  0  0  0  0
    5.1469   -0.7278    0.0000 C   0  0  0  0  0  4  0  0  0  0  0  0
    4.3436   -0.9161    0.0000 O   0  0  0  0  0  2  0  0  0  0  0  0
    3.9164   -0.2103    0.0000 C   0  0  0  0  0  4  0  0  0  0  0  0
    3.7375   -1.0157    0.0000 C   0  0  0  0  0  4  0  0  0  0  0  0
    4.3455   -1.5733    0.0000 C   0  0  0  0  0  4  0  0  0  0  0  0
    4.1666   -2.3787    0.0000 C   0  0  0  0  0  4  0  0  0  0  0  0
    3.3797   -2.6264    0.0000 C   0  0  0  0  0  4  0  0  0  0  0  0
    2.7717   -2.0688    0.0000 C   0  0  0  0  0  4  0  0  0  0  0  0
    2.9506   -1.2635    0.0000 C   0  0  0  0  0  4  0  0  0  0  0  0
    2.1421   -1.4276    0.0000 F   0  0  0  0  0  1  0  0  0  0  0  0
    3.0920   -0.1781    0.0000 C   0  0  0  0  0  4  0  0  0  0  0  0
    2.7608   -0.9337    0.0000 C   0  0  0  0  0  4  0  0  0  0  0  0
    1.9409   -1.0248    0.0000 C   0  0  0  0  0  4  0  0  0  0  0  0
    1.4521   -0.3602    0.0000 C   0  0  0  0  0  4  0  0  0  0  0  0
    1.7832    0.3954    0.0000 C   0  0  0  0  0  4  0  0  0  0  0  0
    2.6032    0.4865    0.0000 C   0  0  0  0  0  4  0  0  0  0  0  0
    1.6097   -1.7804    0.0000 Cl  0  0  0  0  0  1  0  0  0  0  0  0
  1  2  1  0  0  0  0 
  2  3  1  0  0  0  0 
  3  4  1  0  0  0  0 
  4  5  1  0  0  0  0 
  5  6  2  0  0  0  0 
  5  7  1  0  0  0  0 
  7  8  1  0  0  0  0 
  8  9  1  0  0  0  0 
  9 10  1  0  0  0  0 
 10 11  1  0  0  0  0 
 11 12  1  0  0  0  0 
  8 12  1  0  0  0  0 
 12 13  1  0  0  0  0 
 13 14  2  0  0  0  0 
 14 15  1  0  0  0  0 
 15 16  2  0  0  0  0 
 16 17  1  0  0  0  0 
 17 18  2  0  0  0  0 
 13 18  1  0  0  0  0 
 18 19  1  0  0  0  0 
 12 20  1  0  0  0  0 
 20 21  2  0  0  0  0 
 21 22  1  0  0  0  0 
 22 23  2  0  0  0  0 
 23 24  1  0  0  0  0 
 24 25  2  0  0  0  0 
 20 25  1  0  0  0  0 
  4 25  1  0  0  0  0 
 22 26  1  0  0  0  0 
M  END
> <Mol Weight>
376.809

> <Formula>
C19H18ClFN2O3

> <CdId>
240

> <RCDK_LipinskiFailures>
0

> <source>
FDA

> <name>
Flutazolam

> <ABUNDANCE>
83.52% at pH 4.8

> <BLABBER_CHARGE>


> <inchi>
1S/C19H18ClFN2O3/c20-13-5-6-17-15(11-13)19(14-3-1-2-4-16(14)21)22(8-10-26-19)12-18(25)23(17)7-9-24/h1-6,11,24H,7-10,12H2

> <activity>
0

$$$$

  CDK     0331111707

 19 19  0  0  0  0  0  0  0  0999 V2000
    4.2868   -0.0000    0.0000 C   0  0  0  0  0  4  0  0  0  0  0  0
    3.5724   -0.4125    0.0000 C   0  0  0  0  0  4  0  0  0  0  0  0
    3.5724   -1.2375    0.0000 C   0  0  0  0  0  4  0  0  0  0  0  0
    2.8579   -0.0000    0.0000 C   0  0  0  0  0  4  0  0  0  0  0  0
    2.8579    0.8250    0.0000 O   0  0  0  0  0  2  0  0  0  0  0  0
    2.1434   -0.4125    0.0000 N   0  0  0  0  0  3  0  0  0  0  0  0
    1.4289   -0.0000    0.0000 C   0  0  0  0  0  4  0  0  0  0  0  0
    0.7145   -0.4125    0.0000 C   0  0  0  0  0  4  0  0  0  0  0  0
    0.0000   -0.0000    0.0000 C   0  0  0  0  0  4  0  0  0  0  0  0
    0.0000    0.8250    0.0000 C   0  0  0  0  0  4  0  0  0  0  0  0
    0.7145    1.2375    0.0000 C   0  0  0  0  0  4  0  0  0  0  0  0
    1.4289    0.8250    0.0000 C   0  0  0  0  0  4  0  0  0  0  0  0
    0.7145    2.0625    0.0000 C   0  0  0  0  0  4  0  0  0  0  0  0
    0.7145    2.8875    0.0000 F   0  0  0  0  0  1  0  0  0  0  0  0
    1.5395    2.0625    0.0000 F   0  0  0  0  0  1  0  0  0  0  0  0
   -0.1105    2.0625    0.0000 F   0  0  0  0  0  1  0  0  0  0  0  0
   -0.7145    1.2375    0.0000 N   0  0  0  0  0  4  0  0  0  0  0  0
   -1.4289    0.8250    0.0000 O   0  0  0  0  0  1  0  0  0  0  0  0
   -0.7145    2.0625    0.0000 O   0  0  0  0  0  2  0  0  0  0  0  0
  1  2  1  0  0  0  0 
  2  3  1  0  0  0  0 
  2  4  1  0  0  0  0 
  4  5  2  0  0  0  0 
  4  6  1  0  0  0  0 
  6  7  1  0  0  0  0 
  7  8  2  0  0  0  0 
  8  9  1  0  0  0  0 
  9 10  2  0  0  0  0 
 10 11  1  0  0  0  0 
 11 12  2  0  0  0  0 
  7 12  1  0  0  0  0 
 11 13  1  0  0  0  0 
 13 14  1  0  0  0  0 
 13 15  1  0  0  0  0 
 13 16  1  0  0  0  0 
 10 17  1  0  0  0  0 
 17 18  1  0  0  0  0 
 17 19  2  0  0  0  0 
M  CHG  1  17   1
M  CHG  1  18  -1
M  END
> <Mol Weight>
276.2118

> <Formula>
C11H11F3N2O3

> <CdId>
239

> <RCDK_LipinskiFailures>
0

> <source>
BYLER

> <name>
flutamide

> <ABUNDANCE>
100% at pH 4.8

> <BLABBER_CHARGE>
0

> <inchi>
1S/C11H11F3N2O3/c1-6(2)10(17)15-7-3-4-9(16(18)19)8(5-7)11(12,13)14/h3-6H,1-2H3,(H,15,17)

> <activity>
0

$$$$

  CDK     0331111707

 27 29  0  0  0  0  0  0  0  0999 V2000
   -1.9394   -2.3662    0.0000 C   0  0  0  0  0  4  0  0  0  0  0  0
   -1.2250   -1.9537    0.0000 C   0  0  0  0  0  4  0  0  0  0  0  0
   -0.5105   -2.3662    0.0000 N   0  0  0  0  0  4  0  0  0  0  0  0
   -0.5105   -3.1912    0.0000 C   0  0  0  0  0  4  0  0  0  0  0  0
   -1.2250   -3.6037    0.0000 C   0  0  0  0  0  4  0  0  0  0  0  0
    0.2040   -1.9537    0.0000 C   0  0  0  0  0  4  0  0  0  0  0  0
    0.9184   -2.3662    0.0000 C   0  0  0  0  0  4  0  0  0  0  0  0
    1.6329   -1.9537    0.0000 N   0  0  0  0  0  3  0  0  0  0  0  0
    1.5713   -1.1310    0.0000 C   0  0  0  0  0  4  0  0  0  0  0  0
    0.8033   -0.8296    0.0000 O   0  0  0  0  0  2  0  0  0  0  0  0
    2.1760   -0.5698    0.0000 C   0  0  0  0  0  4  0  0  0  0  0  0
    2.9918   -0.6928    0.0000 N   0  0  0  0  0  3  0  0  0  0  0  0
    3.4043   -1.4073    0.0000 C   0  0  0  0  0  4  0  0  0  0  0  0
    4.2270   -1.3456    0.0000 C   0  0  0  0  0  4  0  0  0  0  0  0
    4.5850   -0.6023    0.0000 C   0  0  0  0  0  4  0  0  0  0  0  0
    5.4077   -0.5407    0.0000 C   0  0  0  0  0  4  0  0  0  0  0  0
    5.8724   -1.2223    0.0000 C   0  0  0  0  0  4  0  0  0  0  0  0
    5.5144   -1.9656    0.0000 C   0  0  0  0  0  4  0  0  0  0  0  0
    4.6917   -2.0273    0.0000 C   0  0  0  0  0  4  0  0  0  0  0  0
    4.3338   -2.7706    0.0000 F   0  0  0  0  0  1  0  0  0  0  0  0
    3.1029   -2.1752    0.0000 C   0  0  0  0  0  4  0  0  0  0  0  0
    3.7077   -2.7364    0.0000 C   0  0  0  0  0  4  0  0  0  0  0  0
    3.5241   -3.5407    0.0000 C   0  0  0  0  0  4  0  0  0  0  0  0
    2.7358   -3.7839    0.0000 C   0  0  0  0  0  4  0  0  0  0  0  0
    2.1310   -3.2227    0.0000 C   0  0  0  0  0  4  0  0  0  0  0  0
    2.3146   -2.4184    0.0000 C   0  0  0  0  0  4  0  0  0  0  0  0
    4.1289   -4.1018    0.0000 Cl  0  0  0  0  0  1  0  0  0  0  0  0
  1  2  1  0  0  0  0 
  2  3  1  0  0  0  0 
  3  4  1  0  0  0  0 
  4  5  1  0  0  0  0 
  3  6  1  0  0  0  0 
  6  7  1  0  0  0  0 
  7  8  1  0  0  0  0 
  8  9  1  0  0  0  0 
  9 10  2  0  0  0  0 
  9 11  1  0  0  0  0 
 11 12  1  0  0  0  0 
 12 13  2  0  0  0  0 
 13 14  1  0  0  0  0 
 14 15  2  0  0  0  0 
 15 16  1  0  0  0  0 
 16 17  2  0  0  0  0 
 17 18  1  0  0  0  0 
 18 19  2  0  0  0  0 
 14 19  1  0  0  0  0 
 19 20  1  0  0  0  0 
 13 21  1  0  0  0  0 
 21 22  2  0  0  0  0 
 22 23  1  0  0  0  0 
 23 24  2  0  0  0  0 
 24 25  1  0  0  0  0 
 25 26  2  0  0  0  0 
 21 26  1  0  0  0  0 
  8 26  1  0  0  0  0 
 23 27  1  0  0  0  0 
M  CHG  1   3   1
M  END
> <Mol Weight>
387.878

> <Formula>
C21H23ClFN3O

> <CdId>
238

> <RCDK_LipinskiFailures>
0

> <source>
FDA

> <name>
Flurazepam

> <ABUNDANCE>
99.5% at pH 4.8

> <BLABBER_CHARGE>
1

> <inchi>
1S/C21H23ClFN3O/c1-3-25(4-2)11-12-26-19-10-9-15(22)13-17(19)21(24-14-20(26)27)16-7-5-6-8-18(16)23/h5-10,13H,3-4,11-12,14H2,1-2H3

> <activity>
0

$$$$

  CDK     0331111707

  9  9  0  0  0  0  0  0  0  0999 V2000
    2.1434   -0.4125    0.0000 O   0  0  0  0  0  2  0  0  0  0  0  0
    1.4289   -0.0000    0.0000 C   0  0  0  0  0  4  0  0  0  0  0  0
    0.7145   -0.4125    0.0000 N   0  0  0  0  0  3  0  0  0  0  0  0
    0.0000   -0.0000    0.0000 C   0  0  0  0  0  4  0  0  0  0  0  0
    0.0000    0.8250    0.0000 C   0  0  0  0  0  4  0  0  0  0  0  0
   -0.7145    1.2375    0.0000 F   0  0  0  0  0  1  0  0  0  0  0  0
    0.7145    1.2375    0.0000 C   0  0  0  0  0  4  0  0  0  0  0  0
    0.7145    2.0625    0.0000 O   0  0  0  0  0  2  0  0  0  0  0  0
    1.4289    0.8250    0.0000 N   0  0  0  0  0  3  0  0  0  0  0  0
  1  2  2  0  0  0  0 
  2  3  1  0  0  0  0 
  3  4  1  0  0  0  0 
  4  5  2  0  0  0  0 
  5  6  1  0  0  0  0 
  5  7  1  0  0  0  0 
  7  8  2  0  0  0  0 
  7  9  1  0  0  0  0 
  2  9  1  0  0  0  0 
M  END
> <Mol Weight>
130.0772

> <Formula>
C4H3FN2O2

> <CdId>
234

> <RCDK_LipinskiFailures>
0

> <source>
FDA

> <name>
Fluorouracil, 5-

> <ABUNDANCE>
99.1% at pH 4.8

> <BLABBER_CHARGE>


> <inchi>
1S/C4H3FN2O2/c5-2-1-6-4(9)7-3(2)8/h1H,(H2,6,7,8,9)

> <activity>
0

$$$$

  CDK     0331111707

 20 21  0  0  0  0  0  0  0  0999 V2000
    0.0000   -0.0000    0.0000 O   0  0  0  0  0  2  0  0  0  0  0  0
   -0.7145   -0.4125    0.0000 C   0  0  0  0  0  4  0  0  0  0  0  0
   -1.4289    0.0000    0.0000 O   0  0  0  0  0  1  0  0  0  0  0  0
   -0.7145   -1.2375    0.0000 C   0  0  0  0  0  4  0  0  0  0  0  0
    0.0000   -1.6500    0.0000 C   0  0  0  0  0  4  0  0  0  0  0  0
    0.0000   -2.4750    0.0000 C   0  0  0  0  0  4  0  0  0  0  0  0
   -0.7145   -2.8875    0.0000 C   0  0  0  0  0  4  0  0  0  0  0  0
   -1.4289   -2.4750    0.0000 C   0  0  0  0  0  4  0  0  0  0  0  0
   -1.4289   -1.6500    0.0000 C   0  0  0  0  0  4  0  0  0  0  0  0
   -2.1434   -1.2375    0.0000 N   0  0  0  0  0  3  0  0  0  0  0  0
   -2.8579   -1.6500    0.0000 C   0  0  0  0  0  4  0  0  0  0  0  0
   -2.8579   -2.4750    0.0000 C   0  0  0  0  0  4  0  0  0  0  0  0
   -3.5724   -2.8875    0.0000 C   0  0  0  0  0  4  0  0  0  0  0  0
   -4.2868   -2.4750    0.0000 C   0  0  0  0  0  4  0  0  0  0  0  0
   -4.2868   -1.6500    0.0000 C   0  0  0  0  0  4  0  0  0  0  0  0
   -3.5724   -1.2375    0.0000 C   0  0  0  0  0  4  0  0  0  0  0  0
   -5.0013   -1.2375    0.0000 C   0  0  0  0  0  4  0  0  0  0  0  0
   -5.7158   -0.8250    0.0000 F   0  0  0  0  0  1  0  0  0  0  0  0
   -4.5888   -0.5230    0.0000 F   0  0  0  0  0  1  0  0  0  0  0  0
   -5.4138   -1.9520    0.0000 F   0  0  0  0  0  1  0  0  0  0  0  0
  1  2  2  0  0  0  0 
  2  3  1  0  0  0  0 
  2  4  1  0  0  0  0 
  4  5  2  0  0  0  0 
  5  6  1  0  0  0  0 
  6  7  2  0  0  0  0 
  7  8  1  0  0  0  0 
  8  9  2  0  0  0  0 
  4  9  1  0  0  0  0 
  9 10  1  0  0  0  0 
 10 11  1  0  0  0  0 
 11 12  2  0  0  0  0 
 12 13  1  0  0  0  0 
 13 14  2  0  0  0  0 
 14 15  1  0  0  0  0 
 15 16  2  0  0  0  0 
 11 16  1  0  0  0  0 
 15 17  1  0  0  0  0 
 17 18  1  0  0  0  0 
 17 19  1  0  0  0  0 
 17 20  1  0  0  0  0 
M  CHG  1   3  -1
M  END
> <Mol Weight>
281.2299

> <Formula>
C14H10F3NO2

> <CdId>
233

> <RCDK_LipinskiFailures>
0

> <source>
FDA

> <name>
Flufenamic acid

> <ABUNDANCE>
80.62% at pH 4.8

> <BLABBER_CHARGE>
-1

> <inchi>
1S/C14H10F3NO2/c15-14(16,17)9-4-3-5-10(8-9)18-12-7-2-1-6-11(12)13(19)20/h1-8,18H,(H,19,20)

> <activity>
0

$$$$

  CDK     0331111707

  9  9  0  0  0  0  0  0  0  0999 V2000
    2.1434    1.2375    0.0000 N   0  0  0  0  0  3  0  0  0  0  0  0
    1.4289    0.8250    0.0000 C   0  0  0  0  0  4  0  0  0  0  0  0
    1.4289   -0.0000    0.0000 N   0  0  0  0  0  3  0  0  0  0  0  0
    0.7145   -0.4125    0.0000 C   0  0  0  0  0  4  0  0  0  0  0  0
    0.7145   -1.2375    0.0000 O   0  0  0  0  0  2  0  0  0  0  0  0
    0.0000    0.0000    0.0000 N   0  0  0  0  0  3  0  0  0  0  0  0
    0.0000    0.8250    0.0000 C   0  0  0  0  0  4  0  0  0  0  0  0
    0.7145    1.2375    0.0000 C   0  0  0  0  0  4  0  0  0  0  0  0
    0.7145    2.0625    0.0000 F   0  0  0  0  0  1  0  0  0  0  0  0
  1  2  1  0  0  0  0 
  2  3  2  0  0  0  0 
  3  4  1  0  0  0  0 
  4  5  2  0  0  0  0 
  4  6  1  0  0  0  0 
  6  7  1  0  0  0  0 
  7  8  2  0  0  0  0 
  2  8  1  0  0  0  0 
  8  9  1  0  0  0  0 
M  END
> <Mol Weight>
129.0925

> <Formula>
C4H4FN3O

> <CdId>
231

> <RCDK_LipinskiFailures>
0

> <source>
FDA

> <name>
Flucytosine

> <ABUNDANCE>
99.63% at pH 4.8

> <BLABBER_CHARGE>


> <inchi>
1S/C4H4FN3O/c5-2-1-7-4(9)8-3(2)6/h1H,(H3,6,7,8,9)

> <activity>
0

$$$$

  CDK     0331111707

 17 18  0  0  0  0  0  0  0  0999 V2000
    0.0000   -0.0000    0.0000 O   0  0  0  0  0  2  0  0  0  0  0  0
    0.7145   -0.4125    0.0000 C   0  0  0  0  0  4  0  0  0  0  0  0
    0.7145   -1.2375    0.0000 C   0  0  0  0  0  4  0  0  0  0  0  0
    1.3819   -1.7224    0.0000 O   0  0  0  0  0  2  0  0  0  0  0  0
    1.1270   -2.5070    0.0000 C   0  0  0  0  0  4  0  0  0  0  0  0
    0.3020   -2.5070    0.0000 C   0  0  0  0  0  4  0  0  0  0  0  0
    0.0470   -1.7224    0.0000 C   0  0  0  0  0  4  0  0  0  0  0  0
   -0.7376   -1.4675    0.0000 O   0  0  0  0  0  2  0  0  0  0  0  0
    1.6119   -3.1745    0.0000 N   0  0  0  0  0  3  0  0  0  0  0  0
    2.4324   -3.0882    0.0000 C   0  0  0  0  0  4  0  0  0  0  0  0
    2.9173   -3.7557    0.0000 C   0  0  0  0  0  4  0  0  0  0  0  0
    3.7378   -3.6695    0.0000 F   0  0  0  0  0  1  0  0  0  0  0  0
    2.5817   -4.5094    0.0000 C   0  0  0  0  0  4  0  0  0  0  0  0
    3.0667   -5.1768    0.0000 O   0  0  0  0  0  2  0  0  0  0  0  0
    1.7613   -4.5956    0.0000 N   0  0  0  0  0  3  0  0  0  0  0  0
    1.2763   -3.9282    0.0000 C   0  0  0  0  0  4  0  0  0  0  0  0
    0.4559   -4.0144    0.0000 O   0  0  0  0  0  2  0  0  0  0  0  0
  1  2  1  0  0  0  0 
  2  3  1  0  0  0  0 
  3  4  1  0  0  0  0 
  4  5  1  0  0  0  0 
  5  6  1  0  0  0  0 
  6  7  1  0  0  0  0 
  3  7  1  0  0  0  0 
  7  8  1  0  0  0  0 
  5  9  1  0  0  0  0 
  9 10  1  0  0  0  0 
 10 11  2  0  0  0  0 
 11 12  1  0  0  0  0 
 11 13  1  0  0  0  0 
 13 14  2  0  0  0  0 
 13 15  1  0  0  0  0 
 15 16  1  0  0  0  0 
  9 16  1  0  0  0  0 
 16 17  2  0  0  0  0 
M  END
> <Mol Weight>
246.1924

> <Formula>
C9H11FN2O5

> <CdId>
230

> <RCDK_LipinskiFailures>
0

> <source>
FDA

> <name>
Floxuridine

> <ABUNDANCE>
99.91% at pH 4.8

> <BLABBER_CHARGE>


> <inchi>
1S/C9H11FN2O5/c10-4-2-12(9(16)11-8(4)15)7-1-5(14)6(3-13)17-7/h2,5-7,13-14H,1,3H2,(H,11,15,16)

> <activity>
0

$$$$

  CDK     0331111707

 30 33  0  0  0  0  0  0  0  0999 V2000
   -0.1512   -2.7188    0.0000 C   0  0  0  0  0  4  0  0  0  0  0  0
   -0.8863   -2.3442    0.0000 C   0  0  0  0  0  4  0  0  0  0  0  0
   -1.6213   -2.7188    0.0000 O   0  0  0  0  0  2  0  0  0  0  0  0
   -2.2047   -2.1354    0.0000 N   0  0  0  0  0  3  0  0  0  0  0  0
   -1.8302   -1.4003    0.0000 C   0  0  0  0  0  4  0  0  0  0  0  0
   -1.0153   -1.5294    0.0000 C   0  0  0  0  0  4  0  0  0  0  0  0
   -0.4319   -0.9460    0.0000 C   0  0  0  0  0  4  0  0  0  0  0  0
   -0.6455   -0.1491    0.0000 O   0  0  0  0  0  2  0  0  0  0  0  0
    0.3649   -1.1595    0.0000 N   0  0  0  0  0  3  0  0  0  0  0  0
    0.9483   -0.5762    0.0000 C   0  0  0  0  0  4  0  0  0  0  0  0
    0.9483    0.2488    0.0000 C   0  0  0  0  0  4  0  0  0  0  0  0
    0.3649    0.8322    0.0000 O   0  0  0  0  0  2  0  0  0  0  0  0
    1.7733    0.2488    0.0000 N   0  0  0  0  0  3  0  0  0  0  0  0
    2.5579    0.5038    0.0000 C   0  0  0  0  0  4  0  0  0  0  0  0
    2.8129    1.2884    0.0000 C   0  0  0  0  0  4  0  0  0  0  0  0
    3.6198    1.4599    0.0000 O   0  0  0  0  0  2  0  0  0  0  0  0
    2.2608    1.9015    0.0000 O   0  0  0  0  0  1  0  0  0  0  0  0
    3.0428   -0.1637    0.0000 C   0  0  0  0  0  4  0  0  0  0  0  0
    3.6559   -0.7157    0.0000 C   0  0  0  0  0  4  0  0  0  0  0  0
    3.6559    0.3884    0.0000 C   0  0  0  0  0  4  0  0  0  0  0  0
    2.5579   -0.8311    0.0000 S   0  0  0  0  0  2  0  0  0  0  0  0
    1.7733   -0.5762    0.0000 C   0  0  0  0  0  4  0  0  0  0  0  0
   -2.2047   -0.6652    0.0000 C   0  0  0  0  0  4  0  0  0  0  0  0
   -1.7554    0.0267    0.0000 C   0  0  0  0  0  4  0  0  0  0  0  0
   -0.9315   -0.0165    0.0000 F   0  0  0  0  0  1  0  0  0  0  0  0
   -2.1299    0.7617    0.0000 C   0  0  0  0  0  4  0  0  0  0  0  0
   -2.9538    0.8049    0.0000 C   0  0  0  0  0  4  0  0  0  0  0  0
   -3.4031    0.1130    0.0000 C   0  0  0  0  0  4  0  0  0  0  0  0
   -3.0286   -0.6221    0.0000 C   0  0  0  0  0  4  0  0  0  0  0  0
   -3.4779   -1.3140    0.0000 Cl  0  0  0  0  0  1  0  0  0  0  0  0
  1  2  1  0  0  0  0 
  2  3  1  0  0  0  0 
  3  4  1  0  0  0  0 
  4  5  2  0  0  0  0 
  5  6  1  0  0  0  0 
  2  6  2  0  0  0  0 
  6  7  1  0  0  0  0 
  7  8  2  0  0  0  0 
  7  9  1  0  0  0  0 
  9 10  1  0  0  0  0 
 10 11  1  0  0  0  0 
 11 12  2  0  0  0  0 
 11 13  1  0  0  0  0 
 13 14  1  0  0  0  0 
 14 15  1  0  0  0  0 
 15 16  2  0  0  0  0 
 15 17  1  0  0  0  0 
 14 18  1  0  0  0  0 
 18 19  1  0  0  0  0 
 18 20  1  0  0  0  0 
 18 21  1  0  0  0  0 
 21 22  1  0  0  0  0 
 10 22  1  0  0  0  0 
 13 22  1  0  0  0  0 
  5 23  1  0  0  0  0 
 23 24  2  0  0  0  0 
 24 25  1  0  0  0  0 
 24 26  1  0  0  0  0 
 26 27  2  0  0  0  0 
 27 28  1  0  0  0  0 
 28 29  2  0  0  0  0 
 23 29  1  0  0  0  0 
 29 30  1  0  0  0  0 
M  CHG  1  17  -1
M  END
> <Mol Weight>
453.872

> <Formula>
C19H17ClFN3O5S

> <CdId>
229

> <RCDK_LipinskiFailures>
0

> <source>
FDA

> <name>
Floxacillin

> <ABUNDANCE>
99.13% at pH 4.8

> <BLABBER_CHARGE>
-1

> <inchi>
1S/C19H17ClFN3O5S/c1-7-10(12(23-29-7)11-8(20)5-4-6-9(11)21)15(25)22-13-16(26)24-14(18(27)28)19(2,3)30-17(13)24/h4-6,13-14,17H,1-3H3,(H,22,25)(H,27,28)

> <activity>
0

$$$$

  CDK     0331111707

 28 29  0  0  0  0  0  0  0  0999 V2000
    2.8579    0.0000    0.0000 O   0  0  0  0  0  2  0  0  0  0  0  0
    3.5724   -0.4125    0.0000 C   0  0  0  0  0  4  0  0  0  0  0  0
    3.5724   -1.2375    0.0000 N   0  0  0  0  0  3  0  0  0  0  0  0
    2.8579   -1.6500    0.0000 C   0  0  0  0  0  4  0  0  0  0  0  0
    2.8579   -2.4750    0.0000 C   0  0  0  0  0  4  0  0  0  0  0  0
    3.5724   -2.8875    0.0000 C   0  0  0  0  0  4  0  0  0  0  0  0
    3.5724   -3.7125    0.0000 C   0  0  0  0  0  4  0  0  0  0  0  0
    2.8579   -4.1250    0.0000 C   0  0  0  0  0  4  0  0  0  0  0  0
    2.1434   -3.7125    0.0000 C   0  0  0  0  0  4  0  0  0  0  0  0
    2.1434   -2.8875    0.0000 N   0  0  0  0  0  4  0  0  0  0  0  0
    4.2868   -0.0000    0.0000 C   0  0  0  0  0  4  0  0  0  0  0  0
    4.2868    0.8250    0.0000 C   0  0  0  0  0  4  0  0  0  0  0  0
    5.0013    1.2375    0.0000 C   0  0  0  0  0  4  0  0  0  0  0  0
    5.7158    0.8250    0.0000 C   0  0  0  0  0  4  0  0  0  0  0  0
    5.7158   -0.0000    0.0000 C   0  0  0  0  0  4  0  0  0  0  0  0
    5.0013   -0.4125    0.0000 C   0  0  0  0  0  4  0  0  0  0  0  0
    5.0013   -1.2375    0.0000 O   0  0  0  0  0  2  0  0  0  0  0  0
    4.2868   -1.6500    0.0000 C   0  0  0  0  0  4  0  0  0  0  0  0
    4.2868   -2.4750    0.0000 C   0  0  0  0  0  4  0  0  0  0  0  0
    3.4618   -2.4750    0.0000 F   0  0  0  0  0  1  0  0  0  0  0  0
    5.1118   -2.4750    0.0000 F   0  0  0  0  0  1  0  0  0  0  0  0
    4.2868   -3.3000    0.0000 F   0  0  0  0  0  1  0  0  0  0  0  0
    5.0013    2.0625    0.0000 O   0  0  0  0  0  2  0  0  0  0  0  0
    5.7158    2.4750    0.0000 C   0  0  0  0  0  4  0  0  0  0  0  0
    5.7158    3.3000    0.0000 C   0  0  0  0  0  4  0  0  0  0  0  0
    5.7158    4.1250    0.0000 F   0  0  0  0  0  1  0  0  0  0  0  0
    6.5408    3.3000    0.0000 F   0  0  0  0  0  1  0  0  0  0  0  0
    4.8908    3.3000    0.0000 F   0  0  0  0  0  1  0  0  0  0  0  0
  1  2  2  0  0  0  0 
  2  3  1  0  0  0  0 
  3  4  1  0  0  0  0 
  4  5  1  0  0  0  0 
  5  6  1  0  0  0  0 
  6  7  1  0  0  0  0 
  7  8  1  0  0  0  0 
  8  9  1  0  0  0  0 
  9 10  1  0  0  0  0 
  5 10  1  0  0  0  0 
  2 11  1  0  0  0  0 
 11 12  2  0  0  0  0 
 12 13  1  0  0  0  0 
 13 14  2  0  0  0  0 
 14 15  1  0  0  0  0 
 15 16  2  0  0  0  0 
 11 16  1  0  0  0  0 
 16 17  1  0  0  0  0 
 17 18  1  0  0  0  0 
 18 19  1  0  0  0  0 
 19 20  1  0  0  0  0 
 19 21  1  0  0  0  0 
 19 22  1  0  0  0  0 
 13 23  1  0  0  0  0 
 23 24  1  0  0  0  0 
 24 25  1  0  0  0  0 
 25 26  1  0  0  0  0 
 25 27  1  0  0  0  0 
 25 28  1  0  0  0  0 
M  CHG  1  10   1
M  END
> <Mol Weight>
414.3427

> <Formula>
C17H20F6N2O3

> <CdId>
228

> <RCDK_LipinskiFailures>
0

> <source>
FDA

> <name>
Flecainide

> <ABUNDANCE>
99.99% at pH 4.8

> <BLABBER_CHARGE>
1

> <inchi>
1S/C17H20F6N2O3/c18-16(19,20)9-27-12-4-5-14(28-10-17(21,22)23)13(7-12)15(26)25-8-11-3-1-2-6-24-11/h4-5,7,11,24H,1-3,6,8-10H2,(H,25,26)

> <activity>
0

$$$$

  CDK     0331111707

 29 32  0  0  0  0  0  0  0  0999 V2000
    0.0000    0.0000    0.0000 C   0  0  0  0  0  4  0  0  0  0  0  0
    0.7145   -0.4125    0.0000 C   0  0  0  0  0  4  0  0  0  0  0  0
    1.4289    0.0000    0.0000 C   0  0  0  0  0  4  0  0  0  0  0  0
    1.4289    0.8250    0.0000 O   0  0  0  0  0  2  0  0  0  0  0  0
    2.1434   -0.4125    0.0000 C   0  0  0  0  0  4  0  0  0  0  0  0
    2.8579    0.0000    0.0000 C   0  0  0  0  0  4  0  0  0  0  0  0
    3.5724   -0.4125    0.0000 C   0  0  0  0  0  4  0  0  0  0  0  0
    3.5724   -1.2375    0.0000 C   0  0  0  0  0  4  0  0  0  0  0  0
    2.8579   -1.6500    0.0000 C   0  0  0  0  0  4  0  0  0  0  0  0
    2.8579   -2.4750    0.0000 C   0  0  0  0  0  4  0  0  0  0  0  0
    2.1434   -2.8875    0.0000 O   0  0  0  0  0  2  0  0  0  0  0  0
    3.5724   -2.8875    0.0000 O   0  0  0  0  0  2  0  0  0  0  0  0
    3.5724   -3.7125    0.0000 C   0  0  0  0  0  4  0  0  0  0  0  0
    4.2868   -4.1250    0.0000 C   0  0  0  0  0  4  0  0  0  0  0  0
    4.2868   -4.9500    0.0000 N   0  0  0  0  0  4  0  0  0  0  0  0
    5.0013   -5.3625    0.0000 C   0  0  0  0  0  4  0  0  0  0  0  0
    5.0013   -6.1875    0.0000 C   0  0  0  0  0  4  0  0  0  0  0  0
    4.2868   -6.6000    0.0000 C   0  0  0  0  0  4  0  0  0  0  0  0
    3.5724   -6.1875    0.0000 C   0  0  0  0  0  4  0  0  0  0  0  0
    3.5724   -5.3625    0.0000 C   0  0  0  0  0  4  0  0  0  0  0  0
    2.1434   -1.2375    0.0000 C   0  0  0  0  0  4  0  0  0  0  0  0
    1.4289   -1.6500    0.0000 O   0  0  0  0  0  2  0  0  0  0  0  0
    0.7145   -1.2375    0.0000 C   0  0  0  0  0  4  0  0  0  0  0  0
    0.0000   -1.6500    0.0000 C   0  0  0  0  0  4  0  0  0  0  0  0
    0.0000   -2.4750    0.0000 C   0  0  0  0  0  4  0  0  0  0  0  0
   -0.7145   -2.8875    0.0000 C   0  0  0  0  0  4  0  0  0  0  0  0
   -1.4289   -2.4750    0.0000 C   0  0  0  0  0  4  0  0  0  0  0  0
   -1.4289   -1.6500    0.0000 C   0  0  0  0  0  4  0  0  0  0  0  0
   -0.7145   -1.2375    0.0000 C   0  0  0  0  0  4  0  0  0  0  0  0
  1  2  1  0  0  0  0 
  2  3  1  0  0  0  0 
  3  4  2  0  0  0  0 
  3  5  1  0  0  0  0 
  5  6  2  0  0  0  0 
  6  7  1  0  0  0  0 
  7  8  2  0  0  0  0 
  8  9  1  0  0  0  0 
  9 10  1  0  0  0  0 
 10 11  2  0  0  0  0 
 10 12  1  0  0  0  0 
 12 13  1  0  0  0  0 
 13 14  1  0  0  0  0 
 14 15  1  0  0  0  0 
 15 16  1  0  0  0  0 
 16 17  1  0  0  0  0 
 17 18  1  0  0  0  0 
 18 19  1  0  0  0  0 
 19 20  1  0  0  0  0 
 15 20  1  0  0  0  0 
  9 21  2  0  0  0  0 
  5 21  1  0  0  0  0 
 21 22  1  0  0  0  0 
 22 23  1  0  0  0  0 
  2 23  2  0  0  0  0 
 23 24  1  0  0  0  0 
 24 25  2  0  0  0  0 
 25 26  1  0  0  0  0 
 26 27  2  0  0  0  0 
 27 28  1  0  0  0  0 
 28 29  2  0  0  0  0 
 24 29  1  0  0  0  0 
M  CHG  1  15   1
M  END
> <Mol Weight>
391.4596

> <Formula>
C24H25NO4

> <CdId>
227

> <RCDK_LipinskiFailures>
0

> <source>
FDA

> <name>
Flavoxate

> <ABUNDANCE>
99.97% at pH 4.8

> <BLABBER_CHARGE>
1

> <inchi>
1S/C24H25NO4/c1-17-21(26)19-11-8-12-20(23(19)29-22(17)18-9-4-2-5-10-18)24(27)28-16-15-25-13-6-3-7-14-25/h2,4-5,8-12H,3,6-7,13-16H2,1H3

> <activity>
0

$$$$

  CDK     0331111707

 24 26  0  0  0  0  0  0  0  0999 V2000
   -0.7145    1.2375    0.0000 C   0  0  0  0  0  4  0  0  0  0  0  0
    0.0000    0.8250    0.0000 C   0  0  0  0  0  4  0  0  0  0  0  0
    0.7145    1.2375    0.0000 C   0  0  0  0  0  4  0  0  0  0  0  0
    0.0000   -0.0000    0.0000 C   0  0  0  0  0  4  0  0  0  0  0  0
    0.7145   -0.4125    0.0000 C   0  0  0  0  0  4  0  0  0  0  0  0
    0.7145   -1.2375    0.0000 C   0  0  0  0  0  3  0  0  0  0  0  0
    1.3819   -1.7224    0.0000 C   0  0  0  0  0  4  0  0  0  0  0  0
    2.1665   -1.4675    0.0000 O   0  0  0  0  0  2  0  0  0  0  0  0
    1.1270   -2.5070    0.0000 N   0  0  0  0  0  3  0  0  0  0  0  0
    1.6119   -3.1745    0.0000 C   0  0  0  0  0  4  0  0  0  0  0  0
    2.4324   -3.0882    0.0000 C   0  0  0  0  0  4  0  0  0  0  0  0
    2.9173   -3.7557    0.0000 C   0  0  0  0  0  4  0  0  0  0  0  0
    2.5817   -4.5094    0.0000 C   0  0  0  0  0  4  0  0  0  0  0  0
    1.7613   -4.5956    0.0000 C   0  0  0  0  0  4  0  0  0  0  0  0
    1.2763   -3.9282    0.0000 C   0  0  0  0  0  4  0  0  0  0  0  0
    0.3020   -2.5070    0.0000 N   0  0  0  0  0  3  0  0  0  0  0  0
    0.0470   -1.7224    0.0000 C   0  0  0  0  0  4  0  0  0  0  0  0
   -0.7376   -1.4675    0.0000 O   0  0  0  0  0  2  0  0  0  0  0  0
   -0.1830   -3.1745    0.0000 C   0  0  0  0  0  4  0  0  0  0  0  0
    0.1526   -3.9282    0.0000 C   0  0  0  0  0  4  0  0  0  0  0  0
   -0.3323   -4.5956    0.0000 C   0  0  0  0  0  4  0  0  0  0  0  0
   -1.1528   -4.5094    0.0000 C   0  0  0  0  0  4  0  0  0  0  0  0
   -1.4884   -3.7557    0.0000 C   0  0  0  0  0  4  0  0  0  0  0  0
   -1.0034   -3.0882    0.0000 C   0  0  0  0  0  4  0  0  0  0  0  0
  1  2  1  0  0  0  0 
  2  3  1  0  0  0  0 
  2  4  2  0  0  0  0 
  4  5  1  0  0  0  0 
  5  6  1  0  0  0  0 
  6  7  1  0  0  0  0 
  7  8  2  0  0  0  0 
  7  9  1  0  0  0  0 
  9 10  1  0  0  0  0 
 10 11  2  0  0  0  0 
 11 12  1  0  0  0  0 
 12 13  2  0  0  0  0 
 13 14  1  0  0  0  0 
 14 15  2  0  0  0  0 
 10 15  1  0  0  0  0 
  9 16  1  0  0  0  0 
 16 17  1  0  0  0  0 
  6 17  1  0  0  0  0 
 17 18  2  0  0  0  0 
 16 19  1  0  0  0  0 
 19 20  2  0  0  0  0 
 20 21  1  0  0  0  0 
 21 22  2  0  0  0  0 
 22 23  1  0  0  0  0 
 23 24  2  0  0  0  0 
 19 24  1  0  0  0  0 
M  CHG  1   6  -1
M  END
> <Mol Weight>
320.385

> <Formula>
C20H20N2O2

> <CdId>
226

> <RCDK_LipinskiFailures>
0

> <source>
FDA

> <name>
Feprazone

> <ABUNDANCE>
84.03% at pH 4.8

> <BLABBER_CHARGE>
-1

> <CHECK TAUTOMER>
Multiple tautomers in input structure. Results could be inaccurate.

> <inchi>
1S/C20H20N2O2/c1-15(2)13-14-18-19(23)21(16-9-5-3-6-10-16)22(20(18)24)17-11-7-4-8-12-17/h3-13,18H,14H2,1-2H3

> <activity>
0

$$$$

  CDK     0331111707

 22 23  0  0  0  0  0  0  0  0999 V2000
    2.8579   -4.9500    0.0000 C   0  0  0  0  0  4  0  0  0  0  0  0
    2.8579   -4.1250    0.0000 C   0  0  0  0  0  4  0  0  0  0  0  0
    2.1434   -3.7125    0.0000 C   0  0  0  0  0  4  0  0  0  0  0  0
    1.4289   -4.1250    0.0000 C   0  0  0  0  0  4  0  0  0  0  0  0
    1.4289   -4.9500    0.0000 C   0  0  0  0  0  4  0  0  0  0  0  0
    0.7145   -5.3625    0.0000 C   0  0  0  0  0  4  0  0  0  0  0  0
    0.0000   -4.9500    0.0000 C   0  0  0  0  0  4  0  0  0  0  0  0
   -0.7145   -5.3625    0.0000 O   0  0  0  0  0  2  0  0  0  0  0  0
    0.0000   -4.1250    0.0000 C   0  0  0  0  0  4  0  0  0  0  0  0
    0.7145   -3.7125    0.0000 C   0  0  0  0  0  4  0  0  0  0  0  0
    3.5724   -3.7125    0.0000 N   0  0  0  0  0  4  0  0  0  0  0  0
    4.2868   -4.1250    0.0000 C   0  0  0  0  0  4  0  0  0  0  0  0
    5.0013   -3.7125    0.0000 C   0  0  0  0  0  4  0  0  0  0  0  0
    5.0013   -2.8875    0.0000 O   0  0  0  0  0  2  0  0  0  0  0  0
    5.7158   -4.1250    0.0000 C   0  0  0  0  0  4  0  0  0  0  0  0
    6.4302   -3.7125    0.0000 C   0  0  0  0  0  4  0  0  0  0  0  0
    7.1447   -4.1250    0.0000 C   0  0  0  0  0  4  0  0  0  0  0  0
    7.8592   -3.7125    0.0000 O   0  0  0  0  0  2  0  0  0  0  0  0
    7.1447   -4.9500    0.0000 C   0  0  0  0  0  4  0  0  0  0  0  0
    6.4302   -5.3625    0.0000 C   0  0  0  0  0  4  0  0  0  0  0  0
    6.4302   -6.1875    0.0000 O   0  0  0  0  0  2  0  0  0  0  0  0
    5.7158   -4.9500    0.0000 C   0  0  0  0  0  4  0  0  0  0  0  0
  1  2  1  0  0  0  0 
  2  3  1  0  0  0  0 
  3  4  1  0  0  0  0 
  4  5  2  0  0  0  0 
  5  6  1  0  0  0  0 
  6  7  2  0  0  0  0 
  7  8  1  0  0  0  0 
  7  9  1  0  0  0  0 
  9 10  2  0  0  0  0 
  4 10  1  0  0  0  0 
  2 11  1  0  0  0  0 
 11 12  1  0  0  0  0 
 12 13  1  0  0  0  0 
 13 14  1  0  0  0  0 
 13 15  1  0  0  0  0 
 15 16  2  0  0  0  0 
 16 17  1  0  0  0  0 
 17 18  1  0  0  0  0 
 17 19  2  0  0  0  0 
 19 20  1  0  0  0  0 
 20 21  1  0  0  0  0 
 20 22  2  0  0  0  0 
 15 22  1  0  0  0  0 
M  CHG  1  11   1
M  END
> <Mol Weight>
303.3529

> <Formula>
C17H21NO4

> <CdId>
225

> <RCDK_LipinskiFailures>
0

> <source>
FDA

> <name>
Fenoterol

> <ABUNDANCE>
99.96% at pH 4.8

> <BLABBER_CHARGE>
1

> <inchi>
1S/C17H21NO4/c1-11(6-12-2-4-14(19)5-3-12)18-10-17(22)13-7-15(20)9-16(21)8-13/h2-5,7-9,11,17-22H,6,10H2,1H3

> <activity>
0

$$$$

  CDK     0331111707

 18 19  0  0  0  0  0  0  0  0999 V2000
    1.4289    0.0000    0.0000 C   0  0  0  0  0  4  0  0  0  0  0  0
    2.1434   -0.4125    0.0000 C   0  0  0  0  0  4  0  0  0  0  0  0
    2.8579    0.0000    0.0000 C   0  0  0  0  0  4  0  0  0  0  0  0
    2.8579    0.8250    0.0000 O   0  0  0  0  0  2  0  0  0  0  0  0
    3.5724   -0.4125    0.0000 O   0  0  0  0  0  1  0  0  0  0  0  0
    2.1434   -1.2375    0.0000 C   0  0  0  0  0  4  0  0  0  0  0  0
    2.8579   -1.6500    0.0000 C   0  0  0  0  0  4  0  0  0  0  0  0
    2.8579   -2.4750    0.0000 C   0  0  0  0  0  4  0  0  0  0  0  0
    2.1434   -2.8875    0.0000 C   0  0  0  0  0  4  0  0  0  0  0  0
    1.4289   -2.4750    0.0000 C   0  0  0  0  0  4  0  0  0  0  0  0
    1.4289   -1.6500    0.0000 C   0  0  0  0  0  4  0  0  0  0  0  0
    0.7145   -2.8875    0.0000 O   0  0  0  0  0  2  0  0  0  0  0  0
    0.0000   -2.4750    0.0000 C   0  0  0  0  0  4  0  0  0  0  0  0
   -0.7145   -2.8875    0.0000 C   0  0  0  0  0  4  0  0  0  0  0  0
   -1.4289   -2.4750    0.0000 C   0  0  0  0  0  4  0  0  0  0  0  0
   -1.4289   -1.6500    0.0000 C   0  0  0  0  0  4  0  0  0  0  0  0
   -0.7145   -1.2375    0.0000 C   0  0  0  0  0  4  0  0  0  0  0  0
    0.0000   -1.6500    0.0000 C   0  0  0  0  0  4  0  0  0  0  0  0
  1  2  1  0  0  0  0 
  2  3  1  0  0  0  0 
  3  4  2  0  0  0  0 
  3  5  1  0  0  0  0 
  2  6  1  0  0  0  0 
  6  7  2  0  0  0  0 
  7  8  1  0  0  0  0 
  8  9  2  0  0  0  0 
  9 10  1  0  0  0  0 
 10 11  2  0  0  0  0 
  6 11  1  0  0  0  0 
 10 12  1  0  0  0  0 
 12 13  1  0  0  0  0 
 13 14  2  0  0  0  0 
 14 15  1  0  0  0  0 
 15 16  2  0  0  0  0 
 16 17  1  0  0  0  0 
 17 18  2  0  0  0  0 
 13 18  1  0  0  0  0 
M  CHG  1   5  -1
M  END
> <Mol Weight>
242.2699

> <Formula>
C15H14O3

> <CdId>
224

> <RCDK_LipinskiFailures>
0

> <source>
FDA

> <name>
Fenoprofen

> <ABUNDANCE>
59.44% at pH 4.8

> <BLABBER_CHARGE>
-1

> <inchi>
1S/C15H14O3/c1-11(15(16)17)12-6-5-9-14(10-12)18-13-7-3-2-4-8-13/h2-11H,1H3,(H,16,17)

> <activity>
0

$$$$

  CDK     0331111707

 25 26  0  0  0  0  0  0  0  0999 V2000
   -3.4299   -5.1805    0.0000 C   0  0  0  0  0  4  0  0  0  0  0  0
   -2.8579   -5.7750    0.0000 C   0  0  0  0  0  4  0  0  0  0  0  0
   -3.0867   -6.5676    0.0000 C   0  0  0  0  0  4  0  0  0  0  0  0
   -2.0570   -5.5768    0.0000 O   0  0  0  0  0  2  0  0  0  0  0  0
   -1.4850   -6.1713    0.0000 C   0  0  0  0  0  4  0  0  0  0  0  0
   -1.7138   -6.9640    0.0000 O   0  0  0  0  0  2  0  0  0  0  0  0
   -0.6842   -5.9732    0.0000 C   0  0  0  0  0  4  0  0  0  0  0  0
   -0.4860   -6.7740    0.0000 C   0  0  0  0  0  4  0  0  0  0  0  0
   -0.8823   -5.1723    0.0000 C   0  0  0  0  0  4  0  0  0  0  0  0
    0.1167   -5.7750    0.0000 O   0  0  0  0  0  2  0  0  0  0  0  0
    0.6887   -6.3695    0.0000 C   0  0  0  0  0  4  0  0  0  0  0  0
    1.4896   -6.1713    0.0000 C   0  0  0  0  0  4  0  0  0  0  0  0
    2.0616   -6.7658    0.0000 C   0  0  0  0  0  4  0  0  0  0  0  0
    1.8328   -7.5584    0.0000 C   0  0  0  0  0  4  0  0  0  0  0  0
    1.0320   -7.7566    0.0000 C   0  0  0  0  0  4  0  0  0  0  0  0
    0.4599   -7.1621    0.0000 C   0  0  0  0  0  4  0  0  0  0  0  0
    2.4048   -8.1529    0.0000 C   0  0  0  0  0  4  0  0  0  0  0  0
    2.1760   -8.9455    0.0000 O   0  0  0  0  0  2  0  0  0  0  0  0
    3.2057   -7.9547    0.0000 C   0  0  0  0  0  4  0  0  0  0  0  0
    3.4345   -7.1621    0.0000 C   0  0  0  0  0  4  0  0  0  0  0  0
    4.2353   -6.9640    0.0000 C   0  0  0  0  0  4  0  0  0  0  0  0
    4.8074   -7.5584    0.0000 C   0  0  0  0  0  4  0  0  0  0  0  0
    5.6082   -7.3603    0.0000 Cl  0  0  0  0  0  1  0  0  0  0  0  0
    4.5786   -8.3511    0.0000 C   0  0  0  0  0  4  0  0  0  0  0  0
    3.7777   -8.5492    0.0000 C   0  0  0  0  0  4  0  0  0  0  0  0
  1  2  1  0  0  0  0 
  2  3  1  0  0  0  0 
  2  4  1  0  0  0  0 
  4  5  1  0  0  0  0 
  5  6  2  0  0  0  0 
  5  7  1  0  0  0  0 
  7  8  1  0  0  0  0 
  7  9  1  0  0  0  0 
  7 10  1  0  0  0  0 
 10 11  1  0  0  0  0 
 11 12  2  0  0  0  0 
 12 13  1  0  0  0  0 
 13 14  2  0  0  0  0 
 14 15  1  0  0  0  0 
 15 16  2  0  0  0  0 
 11 16  1  0  0  0  0 
 14 17  1  0  0  0  0 
 17 18  2  0  0  0  0 
 17 19  1  0  0  0  0 
 19 20  2  0  0  0  0 
 20 21  1  0  0  0  0 
 21 22  2  0  0  0  0 
 22 23  1  0  0  0  0 
 22 24  1  0  0  0  0 
 24 25  2  0  0  0  0 
 19 25  1  0  0  0  0 
M  END
> <Mol Weight>
360.831

> <Formula>
C20H21ClO4

> <CdId>
223

> <RCDK_LipinskiFailures>
0

> <source>
BYLER

> <name>
fenofibrate

> <ABUNDANCE>
No species found

> <BLABBER_CHARGE>


> <inchi>
1S/C20H21ClO4/c1-13(2)24-19(23)20(3,4)25-17-11-7-15(8-12-17)18(22)14-5-9-16(21)10-6-14/h5-13H,1-4H3

> <activity>
0

$$$$

  CDK     0331111707

 17 17  0  0  0  0  0  0  0  0999 V2000
   -2.8579    1.6500    0.0000 N   0  0  0  0  0  3  0  0  0  0  0  0
   -2.1434    1.2375    0.0000 C   0  0  0  0  0  4  0  0  0  0  0  0
   -2.1434    0.4125    0.0000 O   0  0  0  0  0  2  0  0  0  0  0  0
   -1.4289    1.6500    0.0000 O   0  0  0  0  0  2  0  0  0  0  0  0
   -0.7145    1.2375    0.0000 C   0  0  0  0  0  4  0  0  0  0  0  0
   -0.0000    1.6500    0.0000 C   0  0  0  0  0  4  0  0  0  0  0  0
    0.7145    1.2375    0.0000 C   0  0  0  0  0  4  0  0  0  0  0  0
    1.4289    1.6500    0.0000 O   0  0  0  0  0  2  0  0  0  0  0  0
    2.1434    1.2375    0.0000 C   0  0  0  0  0  4  0  0  0  0  0  0
    2.8579    1.6500    0.0000 O   0  0  0  0  0  2  0  0  0  0  0  0
    2.1434    0.4125    0.0000 N   0  0  0  0  0  3  0  0  0  0  0  0
   -0.0000    2.4750    0.0000 C   0  0  0  0  0  4  0  0  0  0  0  0
   -0.7145    2.8875    0.0000 C   0  0  0  0  0  4  0  0  0  0  0  0
   -0.7145    3.7125    0.0000 C   0  0  0  0  0  4  0  0  0  0  0  0
   -0.0000    4.1250    0.0000 C   0  0  0  0  0  4  0  0  0  0  0  0
    0.7145    3.7125    0.0000 C   0  0  0  0  0  4  0  0  0  0  0  0
    0.7145    2.8875    0.0000 C   0  0  0  0  0  4  0  0  0  0  0  0
  1  2  1  0  0  0  0 
  2  3  2  0  0  0  0 
  2  4  1  0  0  0  0 
  4  5  1  0  0  0  0 
  5  6  1  0  0  0  0 
  6  7  1  0  0  0  0 
  7  8  1  0  0  0  0 
  8  9  1  0  0  0  0 
  9 10  2  0  0  0  0 
  9 11  1  0  0  0  0 
  6 12  1  0  0  0  0 
 12 13  2  0  0  0  0 
 13 14  1  0  0  0  0 
 14 15  2  0  0  0  0 
 15 16  1  0  0  0  0 
 16 17  2  0  0  0  0 
 12 17  1  0  0  0  0 
M  END
> <Mol Weight>
238.2399

> <Formula>
C11H14N2O4

> <CdId>
220

> <RCDK_LipinskiFailures>
0

> <source>
BYLER

> <name>
felbamate

> <ABUNDANCE>
100% at pH 4.8

> <BLABBER_CHARGE>


> <inchi>
1S/C11H14N2O4/c12-10(14)16-6-9(7-17-11(13)15)8-4-2-1-3-5-8/h1-5,9H,6-7H2,(H2,12,14)(H2,13,15)

> <activity>
0

$$$$

  CDK     0331111707

 34 39  0  0  0  0  0  0  0  0999 V2000
   -1.9664   -4.2477    0.0000 C   0  0  0  0  0  4  0  0  0  0  0  0
   -1.7115   -3.4631    0.0000 C   0  0  0  0  0  4  0  0  0  0  0  0
   -2.1964   -2.7957    0.0000 C   0  0  0  0  0  4  0  0  0  0  0  0
   -3.0214   -2.7957    0.0000 C   0  0  0  0  0  4  0  0  0  0  0  0
   -3.4339   -3.5101    0.0000 C   0  0  0  0  0  4  0  0  0  0  0  0
   -4.2589   -3.5101    0.0000 C   0  0  0  0  0  4  0  0  0  0  0  0
   -4.6714   -2.7957    0.0000 C   0  0  0  0  0  4  0  0  0  0  0  0
   -4.2589   -2.0812    0.0000 C   0  0  0  0  0  4  0  0  0  0  0  0
   -3.4339   -2.0812    0.0000 C   0  0  0  0  0  4  0  0  0  0  0  0
   -1.7115   -2.1282    0.0000 N   0  0  0  0  0  3  0  0  0  0  0  0
   -1.9664   -1.3436    0.0000 N   0  0  0  0  0  3  0  0  0  0  0  0
   -1.4144   -0.7305    0.0000 N   0  0  0  0  0  3  0  0  0  0  0  0
   -1.6693    0.0541    0.0000 N   0  0  0  0  0  4  0  0  0  0  0  0
   -2.4540    0.3091    0.0000 C   0  0  0  0  0  4  0  0  0  0  0  0
   -3.1684   -0.1034    0.0000 C   0  0  0  0  0  4  0  0  0  0  0  0
   -3.8829    0.3091    0.0000 C   0  0  0  0  0  4  0  0  0  0  0  0
   -3.8829    1.1341    0.0000 C   0  0  0  0  0  4  0  0  0  0  0  0
   -3.1684    1.5466    0.0000 C   0  0  0  0  0  4  0  0  0  0  0  0
   -2.4540    1.1341    0.0000 N   0  0  0  0  0  3  0  0  0  0  0  0
   -1.6693    1.3890    0.0000 C   0  0  0  0  0  4  0  0  0  0  0  0
   -1.4144    2.1736    0.0000 C   0  0  0  0  0  4  0  0  0  0  0  0
   -1.1844    0.7216    0.0000 C   0  0  0  0  0  4  0  0  0  0  0  0
   -0.3594    0.7216    0.0000 C   0  0  0  0  0  4  0  0  0  0  0  0
    0.0531    1.4360    0.0000 C   0  0  0  0  0  4  0  0  0  0  0  0
    0.8781    1.4360    0.0000 C   0  0  0  0  0  4  0  0  0  0  0  0
    1.2906    0.7216    0.0000 C   0  0  0  0  0  4  0  0  0  0  0  0
    0.8781    0.0071    0.0000 C   0  0  0  0  0  4  0  0  0  0  0  0
    0.0531    0.0071    0.0000 C   0  0  0  0  0  4  0  0  0  0  0  0
   -0.9269   -2.3832    0.0000 C   0  0  0  0  0  4  0  0  0  0  0  0
   -0.2124   -1.9707    0.0000 C   0  0  0  0  0  4  0  0  0  0  0  0
    0.5021   -2.3832    0.0000 C   0  0  0  0  0  4  0  0  0  0  0  0
    0.5021   -3.2082    0.0000 C   0  0  0  0  0  4  0  0  0  0  0  0
   -0.2124   -3.6207    0.0000 C   0  0  0  0  0  3  0  0  0  0  0  0
   -0.9269   -3.2082    0.0000 N   0  0  0  0  0  3  0  0  0  0  0  0
  1  2  1  0  0  0  0 
  2  3  2  0  0  0  0 
  3  4  1  0  0  0  0 
  4  5  2  0  0  0  0 
  5  6  1  0  0  0  0 
  6  7  2  0  0  0  0 
  7  8  1  0  0  0  0 
  8  9  2  0  0  0  0 
  4  9  1  0  0  0  0 
  3 10  1  0  0  0  0 
 11 10  1  4  0  0  0 
 11 12  2  0  0  0  0 
 12 13  1  0  0  0  0 
 13 14  2  0  0  0  0 
 14 15  1  0  0  0  0 
 15 16  2  0  0  0  0 
 16 17  1  0  0  0  0 
 17 18  2  0  0  0  0 
 18 19  1  0  0  0  0 
 14 19  1  0  0  0  0 
 19 20  1  0  0  0  0 
 20 21  1  0  0  0  0 
 20 22  2  0  0  0  0 
 13 22  1  0  0  0  0 
 22 23  1  0  0  0  0 
 23 24  2  0  0  0  0 
 24 25  1  0  0  0  0 
 25 26  2  0  0  0  0 
 26 27  1  0  0  0  0 
 27 28  2  0  0  0  0 
 23 28  1  0  0  0  0 
 10 29  1  0  0  0  0 
 29 30  2  0  0  0  0 
 30 31  1  0  0  0  0 
 31 32  2  0  0  0  0 
 32 33  1  0  0  0  0 
 33 34  1  0  0  0  0 
  2 34  1  0  0  0  0 
 29 34  1  0  0  0  0 
M  CHG  1  13   1
M  CHG  1  33  -1
M  END
> <Mol Weight>
444.5304

> <Formula>
C28H24N6

> <CdId>
219

> <RCDK_LipinskiFailures>
0

> <source>
FDA

> <name>
Fazadinium bromide

> <ABUNDANCE>
No species found

> <BLABBER_CHARGE>
0

> <CHECK TAUTOMER>
Multiple tautomers in input structure. Results could be inaccurate.

> <inchi>
1S/C28H24N6/c1-21-27(23-13-5-3-6-14-23)33(25-17-9-11-19-31(21)25)29-30-34-26-18-10-12-20-32(26)22(2)28(34)24-15-7-4-8-16-24/h3-20H,1-2H3/q+2/b30-29+

> <activity>
0

$$$$

  CDK     0331111707

 20 20  0  0  0  0  0  0  0  0999 V2000
   -3.0140    1.2636    0.0000 N   0  0  0  0  0  3  0  0  0  0  0  0
   -2.1935    1.1773    0.0000 C   0  0  0  0  0  4  0  0  0  0  0  0
   -1.7086    1.8448    0.0000 N   0  0  0  0  0  4  0  0  0  0  0  0
   -0.8881    1.7586    0.0000 C   0  0  0  0  0  4  0  0  0  0  0  0
   -0.3361    2.3716    0.0000 N   0  0  0  0  0  3  0  0  0  0  0  0
    0.4176    2.0361    0.0000 C   0  0  0  0  0  4  0  0  0  0  0  0
    1.1321    2.4486    0.0000 C   0  0  0  0  0  4  0  0  0  0  0  0
    1.8465    2.0361    0.0000 S   0  0  0  0  0  2  0  0  0  0  0  0
    2.5610    2.4486    0.0000 C   0  0  0  0  0  4  0  0  0  0  0  0
    3.2755    2.0361    0.0000 C   0  0  0  0  0  4  0  0  0  0  0  0
    3.9899    2.4486    0.0000 C   0  0  0  0  0  4  0  0  0  0  0  0
    4.7044    2.0361    0.0000 N   0  0  0  0  0  3  0  0  0  0  0  0
    5.4189    2.4486    0.0000 S   0  0  0  0  0  6  0  0  0  0  0  0
    6.1334    2.8611    0.0000 O   0  0  0  0  0  2  0  0  0  0  0  0
    5.8314    1.7341    0.0000 O   0  0  0  0  0  2  0  0  0  0  0  0
    5.0064    3.1631    0.0000 N   0  0  0  0  0  3  0  0  0  0  0  0
    3.9899    3.2736    0.0000 N   0  0  0  0  0  3  0  0  0  0  0  0
    0.3314    1.2156    0.0000 C   0  0  0  0  0  4  0  0  0  0  0  0
   -0.4756    1.0441    0.0000 S   0  0  0  0  0  2  0  0  0  0  0  0
   -1.8580    0.4237    0.0000 N   0  0  0  0  0  3  0  0  0  0  0  0
  1  2  1  0  0  0  0 
  2  3  2  0  0  0  0 
  3  4  1  0  0  0  0 
  4  5  2  0  0  0  0 
  5  6  1  0  0  0  0 
  6  7  1  0  0  0  0 
  7  8  1  0  0  0  0 
  8  9  1  0  0  0  0 
  9 10  1  0  0  0  0 
 10 11  1  0  0  0  0 
 11 12  2  0  0  0  0 
 12 13  1  4  0  0  0 
 13 14  2  0  0  0  0 
 13 15  2  0  0  0  0 
 13 16  1  0  0  0  0 
 11 17  1  0  0  0  0 
  6 18  2  0  0  0  0 
 18 19  1  0  0  0  0 
  4 19  1  0  0  0  0 
  2 20  1  0  0  0  0 
M  CHG  1   3   1
M  END
> <Mol Weight>
337.445

> <Formula>
C8H15N7O2S3

> <CdId>
218

> <RCDK_LipinskiFailures>
0

> <source>
BYLER

> <name>
famotidine

> <ABUNDANCE>
99.07% at pH 4.8

> <BLABBER_CHARGE>
1

> <CHECK TAUTOMER>
Multiple tautomers in input structure. Results could be inaccurate.

> <inchi>
1S/C8H15N7O2S3/c9-6(15-20(12,16)17)1-2-18-3-5-4-19-8(13-5)14-7(10)11/h4H,1-3H2,(H2,9,15)(H2,12,16,17)(H4,10,11,13,14)

> <activity>
0

$$$$

  CDK     0331111707

 23 24  0  0  0  0  0  0  0  0999 V2000
    6.1190   -2.7017    0.0000 C   0  0  0  0  0  4  0  0  0  0  0  0
    6.1190   -1.8767    0.0000 C   0  0  0  0  0  4  0  0  0  0  0  0
    5.4046   -1.4642    0.0000 O   0  0  0  0  0  2  0  0  0  0  0  0
    6.8335   -1.4642    0.0000 O   0  0  0  0  0  2  0  0  0  0  0  0
    6.8335   -0.6392    0.0000 C   0  0  0  0  0  4  0  0  0  0  0  0
    7.5480   -0.2267    0.0000 C   0  0  0  0  0  4  0  0  0  0  0  0
    7.5480    0.5983    0.0000 C   0  0  0  0  0  4  0  0  0  0  0  0
    8.2625    1.0108    0.0000 C   0  0  0  0  0  4  0  0  0  0  0  0
    8.2625    1.8358    0.0000 N   0  0  0  0  0  3  0  0  0  0  0  0
    7.5950    2.3207    0.0000 C   0  0  0  0  0  4  0  0  0  0  0  0
    7.8500    3.1053    0.0000 N   0  0  0  0  0  3  0  0  0  0  0  0
    8.6750    3.1053    0.0000 C   0  0  0  0  0  4  0  0  0  0  0  0
    9.2270    3.7184    0.0000 C   0  0  0  0  0  4  0  0  0  0  0  0
   10.0340    3.5469    0.0000 N   0  0  0  0  0  3  0  0  0  0  0  0
   10.2889    2.7623    0.0000 C   0  0  0  0  0  4  0  0  0  0  0  0
   11.0959    2.5907    0.0000 N   0  0  0  0  0  3  0  0  0  0  0  0
    9.7369    2.1492    0.0000 N   0  0  0  0  0  3  0  0  0  0  0  0
    8.9299    2.3207    0.0000 C   0  0  0  0  0  4  0  0  0  0  0  0
    8.2625   -0.6392    0.0000 C   0  0  0  0  0  4  0  0  0  0  0  0
    8.2625   -1.4642    0.0000 O   0  0  0  0  0  2  0  0  0  0  0  0
    8.9769   -1.8767    0.0000 C   0  0  0  0  0  4  0  0  0  0  0  0
    9.6914   -1.4642    0.0000 C   0  0  0  0  0  4  0  0  0  0  0  0
    8.9769   -2.7017    0.0000 O   0  0  0  0  0  2  0  0  0  0  0  0
  1  2  1  0  0  0  0 
  2  3  2  0  0  0  0 
  2  4  1  0  0  0  0 
  4  5  1  0  0  0  0 
  5  6  1  0  0  0  0 
  6  7  1  0  0  0  0 
  7  8  1  0  0  0  0 
  8  9  1  0  0  0  0 
  9 10  1  0  0  0  0 
 10 11  2  0  0  0  0 
 11 12  1  0  0  0  0 
 12 13  2  0  0  0  0 
 13 14  1  0  0  0  0 
 14 15  2  0  0  0  0 
 15 16  1  0  0  0  0 
 15 17  1  0  0  0  0 
 17 18  2  0  0  0  0 
 12 18  1  0  0  0  0 
  9 18  1  0  0  0  0 
  6 19  1  0  0  0  0 
 19 20  1  0  0  0  0 
 20 21  1  0  0  0  0 
 21 22  1  0  0  0  0 
 21 23  2  0  0  0  0 
M  END
> <Mol Weight>
321.3318

> <Formula>
C14H19N5O4

> <CdId>
217

> <RCDK_LipinskiFailures>
0

> <source>
FDA

> <name>
Famciclovir

> <ABUNDANCE>
73.63% at pH 4.8

> <BLABBER_CHARGE>


> <inchi>
1S/C14H19N5O4/c1-9(20)22-6-11(7-23-10(2)21)3-4-19-8-17-12-5-16-14(15)18-13(12)19/h5,8,11H,3-4,6-7H2,1-2H3,(H2,15,16,18)

> <activity>
0

$$$$

  CDK     0331111707

 18 19  0  0  0  0  0  0  0  0999 V2000
    2.0367    1.1759    0.0000 C   0  0  0  0  0  4  0  0  0  0  0  0
    2.7512    0.7634    0.0000 C   0  0  0  0  0  4  0  0  0  0  0  0
    2.7512   -0.0616    0.0000 O   0  0  0  0  0  2  0  0  0  0  0  0
    2.0367   -0.4741    0.0000 C   0  0  0  0  0  4  0  0  0  0  0  0
    1.3222   -0.0616    0.0000 O   0  0  0  0  0  2  0  0  0  0  0  0
    2.0367   -1.2991    0.0000 C   0  0  0  0  0  4  0  0  0  0  0  0
    1.3693   -1.7840    0.0000 C   0  0  0  0  0  4  0  0  0  0  0  0
    1.6242   -2.5687    0.0000 N   0  0  0  0  0  3  0  0  0  0  0  0
    2.4492   -2.5687    0.0000 C   0  0  0  0  0  4  0  0  0  0  0  0
    2.7041   -1.7840    0.0000 N   0  0  0  0  0  3  0  0  0  0  0  0
    3.4888   -1.5291    0.0000 C   0  0  0  0  0  4  0  0  0  0  0  0
    3.6603   -0.7221    0.0000 C   0  0  0  0  0  4  0  0  0  0  0  0
    4.1019   -2.0811    0.0000 C   0  0  0  0  0  4  0  0  0  0  0  0
    4.8865   -1.8262    0.0000 C   0  0  0  0  0  4  0  0  0  0  0  0
    5.4996   -2.3782    0.0000 C   0  0  0  0  0  4  0  0  0  0  0  0
    5.3281   -3.1852    0.0000 C   0  0  0  0  0  4  0  0  0  0  0  0
    4.5434   -3.4401    0.0000 C   0  0  0  0  0  4  0  0  0  0  0  0
    3.9303   -2.8881    0.0000 C   0  0  0  0  0  4  0  0  0  0  0  0
  1  2  1  0  0  0  0 
  2  3  1  0  0  0  0 
  3  4  1  0  0  0  0 
  4  5  2  0  0  0  0 
  4  6  1  0  0  0  0 
  6  7  2  0  0  0  0 
  7  8  1  0  0  0  0 
  8  9  2  0  0  0  0 
  9 10  1  0  0  0  0 
  6 10  1  0  0  0  0 
 10 11  1  0  0  0  0 
 11 12  1  0  0  0  0 
 11 13  1  0  0  0  0 
 13 14  2  0  0  0  0 
 14 15  1  0  0  0  0 
 15 16  2  0  0  0  0 
 16 17  1  0  0  0  0 
 17 18  2  0  0  0  0 
 13 18  1  0  0  0  0 
M  END
> <Mol Weight>
244.289

> <Formula>
C14H16N2O2

> <CdId>
214

> <RCDK_LipinskiFailures>
0

> <source>
FDA

> <name>
Etomidate

> <ABUNDANCE>
98.02% at pH 4.8

> <BLABBER_CHARGE>


> <inchi>
1S/C14H16N2O2/c1-3-18-14(17)13-9-15-10-16(13)11(2)12-7-5-4-6-8-12/h4-11H,3H2,1-2H3

> <activity>
0

$$$$

  CDK     0331111707

 23 26  0  0  0  0  0  0  0  0999 V2000
    0.1028   -2.7438    0.0000 C   0  0  0  0  0  4  0  0  0  0  0  0
   -0.0202   -1.9280    0.0000 C   0  0  0  0  0  4  0  0  0  0  0  0
    0.6248   -1.4137    0.0000 C   0  0  0  0  0  4  0  0  0  0  0  0
    0.5878   -0.5895    0.0000 C   0  0  0  0  0  4  0  0  0  0  0  0
    1.3602   -0.2996    0.0000 C   0  0  0  0  0  4  0  0  0  0  0  0
    1.5438    0.5047    0.0000 C   0  0  0  0  0  4  0  0  0  0  0  0
    2.2871    0.8627    0.0000 N   0  0  0  0  0  4  0  0  0  0  0  0
    3.0304    0.5047    0.0000 C   0  0  0  0  0  4  0  0  0  0  0  0
    3.2140   -0.2996    0.0000 C   0  0  0  0  0  4  0  0  0  0  0  0
    3.9864   -0.5895    0.0000 N   0  0  0  0  0  3  0  0  0  0  0  0
    3.9493   -1.4137    0.0000 N   0  0  0  0  0  3  0  0  0  0  0  0
    3.1541   -1.6331    0.0000 C   0  0  0  0  0  4  0  0  0  0  0  0
    2.8642   -2.4055    0.0000 C   0  0  0  0  0  4  0  0  0  0  0  0
    2.6996   -0.9446    0.0000 N   0  0  0  0  0  3  0  0  0  0  0  0
    1.8746   -0.9446    0.0000 C   0  0  0  0  0  4  0  0  0  0  0  0
    1.4201   -1.6331    0.0000 S   0  0  0  0  0  2  0  0  0  0  0  0
    0.8988    1.0191    0.0000 C   0  0  0  0  0  4  0  0  0  0  0  0
    0.1308    0.7177    0.0000 C   0  0  0  0  0  4  0  0  0  0  0  0
   -0.5142    1.2321    0.0000 C   0  0  0  0  0  4  0  0  0  0  0  0
   -0.3912    2.0478    0.0000 C   0  0  0  0  0  4  0  0  0  0  0  0
    0.3767    2.3492    0.0000 C   0  0  0  0  0  4  0  0  0  0  0  0
    1.0217    1.8349    0.0000 C   0  0  0  0  0  4  0  0  0  0  0  0
    1.7897    2.1363    0.0000 Cl  0  0  0  0  0  1  0  0  0  0  0  0
  1  2  1  0  0  0  0 
  2  3  1  0  0  0  0 
  3  4  2  0  0  0  0 
  4  5  1  0  0  0  0 
  5  6  1  0  0  0  0 
  6  7  2  0  0  0  0 
  7  8  1  0  0  0  0 
  8  9  1  0  0  0  0 
  9 10  2  0  0  0  0 
 10 11  1  0  0  0  0 
 11 12  2  0  0  0  0 
 12 13  1  0  0  0  0 
 12 14  1  0  0  0  0 
  9 14  1  0  0  0  0 
 14 15  1  0  0  0  0 
  5 15  2  0  0  0  0 
 15 16  1  0  0  0  0 
  3 16  1  0  0  0  0 
  6 17  1  0  0  0  0 
 17 18  2  0  0  0  0 
 18 19  1  0  0  0  0 
 19 20  2  0  0  0  0 
 20 21  1  0  0  0  0 
 21 22  2  0  0  0  0 
 17 22  1  0  0  0  0 
 22 23  1  0  0  0  0 
M  CHG  1   7   1
M  END
> <Mol Weight>
342.846

> <Formula>
C17H15ClN4S

> <CdId>
213

> <RCDK_LipinskiFailures>
0

> <source>
FDA

> <name>
Etizolam

> <ABUNDANCE>
56.44% at pH 4.8

> <BLABBER_CHARGE>
1

> <inchi>
1S/C17H15ClN4S/c1-3-11-8-13-16(12-6-4-5-7-14(12)18)19-9-15-21-20-10(2)22(15)17(13)23-11/h4-8H,3,9H2,1-2H3

> <activity>
0

$$$$

  CDK     0331111707

 20 20  0  0  0  0  0  0  0  0999 V2000
   -3.5724   -2.8875    0.0000 C   0  0  0  0  0  4  0  0  0  0  0  0
   -2.8579   -3.3000    0.0000 C   0  0  0  0  0  4  0  0  0  0  0  0
   -2.1434   -2.8875    0.0000 C   0  0  0  0  0  4  0  0  0  0  0  0
   -1.4289   -3.3000    0.0000 N   0  0  0  0  0  4  0  0  0  0  0  0
   -1.4289   -4.1250    0.0000 C   0  0  0  0  0  4  0  0  0  0  0  0
   -0.7145   -4.5375    0.0000 C   0  0  0  0  0  4  0  0  0  0  0  0
   -0.7145   -2.8875    0.0000 C   0  0  0  0  0  4  0  0  0  0  0  0
   -0.7145   -2.0625    0.0000 C   0  0  0  0  0  4  0  0  0  0  0  0
    0.0000   -1.6500    0.0000 C   0  0  0  0  0  4  0  0  0  0  0  0
    0.0000   -3.3000    0.0000 C   0  0  0  0  0  4  0  0  0  0  0  0
    0.0000   -4.1250    0.0000 O   0  0  0  0  0  2  0  0  0  0  0  0
    0.7145   -2.8875    0.0000 N   0  0  0  0  0  3  0  0  0  0  0  0
    1.4289   -3.3000    0.0000 C   0  0  0  0  0  4  0  0  0  0  0  0
    2.1434   -2.8875    0.0000 C   0  0  0  0  0  4  0  0  0  0  0  0
    2.1434   -2.0625    0.0000 C   0  0  0  0  0  4  0  0  0  0  0  0
    2.8579   -3.3000    0.0000 C   0  0  0  0  0  4  0  0  0  0  0  0
    2.8579   -4.1250    0.0000 C   0  0  0  0  0  4  0  0  0  0  0  0
    2.1434   -4.5375    0.0000 C   0  0  0  0  0  4  0  0  0  0  0  0
    1.4289   -4.1250    0.0000 C   0  0  0  0  0  4  0  0  0  0  0  0
    0.7145   -4.5375    0.0000 C   0  0  0  0  0  4  0  0  0  0  0  0
  1  2  1  0  0  0  0 
  2  3  1  0  0  0  0 
  3  4  1  0  0  0  0 
  4  5  1  0  0  0  0 
  5  6  1  0  0  0  0 
  4  7  1  0  0  0  0 
  7  8  1  0  0  0  0 
  8  9  1  0  0  0  0 
  7 10  1  0  0  0  0 
 10 11  2  0  0  0  0 
 10 12  1  0  0  0  0 
 12 13  1  0  0  0  0 
 13 14  2  0  0  0  0 
 14 15  1  0  0  0  0 
 14 16  1  0  0  0  0 
 16 17  2  0  0  0  0 
 17 18  1  0  0  0  0 
 18 19  2  0  0  0  0 
 13 19  1  0  0  0  0 
 19 20  1  0  0  0  0 
M  CHG  1   4   1
M  END
> <Mol Weight>
276.417

> <Formula>
C17H28N2O

> <CdId>
212

> <RCDK_LipinskiFailures>
0

> <source>
FDA

> <name>
Etidocaine

> <ABUNDANCE>
99.95% at pH 4.8

> <BLABBER_CHARGE>
1

> <inchi>
1S/C17H28N2O/c1-6-12-19(8-3)15(7-2)17(20)18-16-13(4)10-9-11-14(16)5/h9-11,15H,6-8,12H2,1-5H3,(H,18,20)

> <activity>
0

$$$$

  CDK     0331111707

 22 24  0  0  0  0  0  0  0  0999 V2000
    2.1434    1.2375    0.0000 C   0  0  0  0  0  4  0  0  0  0  0  0
    2.8579    0.8250    0.0000 C   0  0  0  0  0  4  0  0  0  0  0  0
    3.5724    1.2375    0.0000 N   0  0  0  0  0  4  0  0  0  0  0  0
    3.5724    2.0625    0.0000 C   0  0  0  0  0  4  0  0  0  0  0  0
    4.2868    2.4750    0.0000 C   0  0  0  0  0  4  0  0  0  0  0  0
    4.2868    0.8250    0.0000 C   0  0  0  0  0  4  0  0  0  0  0  0
    4.2868    0.0000    0.0000 C   0  0  0  0  0  4  0  0  0  0  0  0
    5.0013    1.2375    0.0000 C   0  0  0  0  0  4  0  0  0  0  0  0
    5.7158    0.8250    0.0000 N   0  0  0  0  0  3  0  0  0  0  0  0
    6.4302    1.2375    0.0000 C   0  0  0  0  0  4  0  0  0  0  0  0
    6.4302    2.0625    0.0000 C   0  0  0  0  0  4  0  0  0  0  0  0
    7.1447    2.4750    0.0000 C   0  0  0  0  0  4  0  0  0  0  0  0
    7.8592    2.0625    0.0000 C   0  0  0  0  0  4  0  0  0  0  0  0
    7.8592    1.2375    0.0000 C   0  0  0  0  0  4  0  0  0  0  0  0
    7.1447    0.8250    0.0000 C   0  0  0  0  0  4  0  0  0  0  0  0
    7.1447    0.0000    0.0000 S   0  0  0  0  0  2  0  0  0  0  0  0
    6.4302   -0.4125    0.0000 C   0  0  0  0  0  4  0  0  0  0  0  0
    6.4302   -1.2375    0.0000 C   0  0  0  0  0  4  0  0  0  0  0  0
    5.7158   -1.6500    0.0000 C   0  0  0  0  0  4  0  0  0  0  0  0
    5.0013   -1.2375    0.0000 C   0  0  0  0  0  4  0  0  0  0  0  0
    5.0013   -0.4125    0.0000 C   0  0  0  0  0  4  0  0  0  0  0  0
    5.7158    0.0000    0.0000 C   0  0  0  0  0  4  0  0  0  0  0  0
  1  2  1  0  0  0  0 
  2  3  1  0  0  0  0 
  3  4  1  0  0  0  0 
  4  5  1  0  0  0  0 
  3  6  1  0  0  0  0 
  6  7  1  0  0  0  0 
  6  8  1  0  0  0  0 
  8  9  1  0  0  0  0 
  9 10  1  0  0  0  0 
 10 11  2  0  0  0  0 
 11 12  1  0  0  0  0 
 12 13  2  0  0  0  0 
 13 14  1  0  0  0  0 
 14 15  2  0  0  0  0 
 10 15  1  0  0  0  0 
 15 16  1  0  0  0  0 
 16 17  1  0  0  0  0 
 17 18  2  0  0  0  0 
 18 19  1  0  0  0  0 
 19 20  2  0  0  0  0 
 20 21  1  0  0  0  0 
 21 22  2  0  0  0  0 
 17 22  1  0  0  0  0 
  9 22  1  0  0  0  0 
M  CHG  1   3   1
M  END
> <Mol Weight>
312.472

> <Formula>
C19H24N2S

> <CdId>
209

> <RCDK_LipinskiFailures>
0

> <source>
FDA

> <name>
Ethopropazine

> <ABUNDANCE>
100% at pH 4.8

> <BLABBER_CHARGE>
1

> <inchi>
1S/C19H24N2S/c1-4-20(5-2)15(3)14-21-16-10-6-8-12-18(16)22-19-13-9-7-11-17(19)21/h6-13,15H,4-5,14H2,1-3H3

> <activity>
0

$$$$

  CDK     0331111707

  9  8  0  0  0  0  0  0  0  0999 V2000
    2.0625    2.1434    0.0000 C   0  0  0  0  0  4  0  0  0  0  0  0
    1.6500    1.4289    0.0000 C   0  0  0  0  0  4  0  0  0  0  0  0
    1.2375    0.7145    0.0000 C   0  0  0  0  0  4  0  0  0  0  0  0
    0.5230    1.1270    0.0000 O   0  0  0  0  0  2  0  0  0  0  0  0
    1.9520    0.3020    0.0000 C   0  0  0  0  0  4  0  0  0  0  0  0
    1.9520   -0.5230    0.0000 C   0  0  0  0  0  4  0  0  0  0  0  0
    0.8250    0.0000    0.0000 C   0  0  0  0  0  4  0  0  0  0  0  0
    0.0000    0.0000    0.0000 C   0  0  0  0  0  4  0  0  0  0  0  0
   -0.4125   -0.7145    0.0000 Cl  0  0  0  0  0  1  0  0  0  0  0  0
  1  2  3  0  0  0  0 
  2  3  1  0  0  0  0 
  3  4  1  0  0  0  0 
  3  5  1  0  0  0  0 
  5  6  1  0  0  0  0 
  3  7  1  0  0  0  0 
  7  8  2  0  0  0  0 
  8  9  1  4  0  0  0 
M  END
> <Mol Weight>
144.599

> <Formula>
C7H9ClO

> <CdId>
208

> <RCDK_LipinskiFailures>
0

> <source>
FDA

> <name>
Ethchlorvynol

> <ABUNDANCE>
100% at pH 4.8

> <BLABBER_CHARGE>


> <inchi>
1S/C7H9ClO/c1-3-7(9,4-2)5-6-8/h1,5-6,9H,4H2,2H3/b6-5+

> <activity>
0

$$$$

  CDK     0331111707

 24 27  0  0  0  0  0  0  0  0999 V2000
    1.3895   -1.8497    0.0000 C   0  0  0  0  0  4  0  0  0  0  0  0
    1.7494   -2.5921    0.0000 C   0  0  0  0  0  4  0  0  0  0  0  0
    2.2812   -1.9614    0.0000 C   0  0  0  0  0  4  0  0  0  0  0  0
    3.0934   -2.1066    0.0000 C   0  0  0  0  0  4  0  0  0  0  0  0
    3.3737   -2.8825    0.0000 C   0  0  0  0  0  4  0  0  0  0  0  0
    4.1858   -3.0277    0.0000 C   0  0  0  0  0  4  0  0  0  0  0  0
    4.7176   -2.3970    0.0000 C   0  0  0  0  0  4  0  0  0  0  0  0
    5.5297   -2.5422    0.0000 C   0  0  0  0  0  4  0  0  0  0  0  0
    5.8100   -3.3182    0.0000 C   0  0  0  0  0  4  0  0  0  0  0  0
    5.2782   -3.9489    0.0000 C   0  0  0  0  0  4  0  0  0  0  0  0
    4.4661   -3.8037    0.0000 C   0  0  0  0  0  4  0  0  0  0  0  0
    3.9343   -4.4344    0.0000 C   0  0  0  0  0  4  0  0  0  0  0  0
    3.1221   -4.2891    0.0000 C   0  0  0  0  0  4  0  0  0  0  0  0
    2.8418   -3.5132    0.0000 C   0  0  0  0  0  4  0  0  0  0  0  0
    2.0297   -3.3680    0.0000 C   0  0  0  0  0  4  0  0  0  0  0  0
    1.3784   -3.8744    0.0000 C   0  0  0  0  0  4  0  0  0  0  0  0
    0.6955   -3.4114    0.0000 C   0  0  0  0  0  4  0  0  0  0  0  0
    0.9249   -2.6189    0.0000 C   0  0  0  0  0  4  0  0  0  0  0  0
    0.4185   -1.9676    0.0000 O   0  0  0  0  0  2  0  0  0  0  0  0
    6.6221   -3.4634    0.0000 O   0  0  0  0  0  2  0  0  0  0  0  0
    7.1540   -2.8327    0.0000 S   0  0  0  0  0  6  0  0  0  0  0  0
    7.6858   -2.2020    0.0000 O   0  0  0  0  0  2  0  0  0  0  0  0
    7.7847   -3.3645    0.0000 O   0  0  0  0  0  2  0  0  0  0  0  0
    6.5232   -2.3008    0.0000 O   0  0  0  0  0  1  0  0  0  0  0  0
  1  2  1  0  0  0  0 
  2  3  1  0  0  0  0 
  3  4  1  0  0  0  0 
  4  5  1  0  0  0  0 
  5  6  1  0  0  0  0 
  6  7  2  0  0  0  0 
  7  8  1  0  0  0  0 
  8  9  2  0  0  0  0 
  9 10  1  0  0  0  0 
 10 11  2  0  0  0  0 
  6 11  1  0  0  0  0 
 11 12  1  0  0  0  0 
 12 13  1  0  0  0  0 
 13 14  1  0  0  0  0 
  5 14  1  0  0  0  0 
 14 15  1  0  0  0  0 
  2 15  1  0  0  0  0 
 15 16  1  0  0  0  0 
 16 17  1  0  0  0  0 
 17 18  1  0  0  0  0 
  2 18  1  0  0  0  0 
 18 19  2  0  0  0  0 
  9 20  1  0  0  0  0 
 20 21  1  0  0  0  0 
 21 22  2  0  0  0  0 
 21 23  2  0  0  0  0 
 21 24  1  0  0  0  0 
M  CHG  1  24  -1
M  END
> <Mol Weight>
350.429

> <Formula>
C18H22O5S

> <CdId>
207

> <RCDK_LipinskiFailures>
0

> <source>
FDA

> <name>
Estropipate

> <ABUNDANCE>
100% at pH 4.8

> <BLABBER_CHARGE>
-1

> <inchi>
1S/C18H22O5S/c1-18-9-8-14-13-5-3-12(23-24(20,21)22)10-11(13)2-4-15(14)16(18)6-7-17(18)19/h3,5,10,14-16H,2,4,6-9H2,1H3,(H,20,21,22)

> <activity>
0

$$$$

  CDK     0331111707

 28 31  0  0  0  0  0  0  0  0999 V2000
    8.6360    2.4000    0.0000 C   0  0  0  0  0  4  0  0  0  0  0  0
    8.3557    1.6241    0.0000 C   0  0  0  0  0  4  0  0  0  0  0  0
    7.5435    1.4789    0.0000 C   0  0  0  0  0  4  0  0  0  0  0  0
    7.0117    2.1096    0.0000 O   0  0  0  0  0  2  0  0  0  0  0  0
    7.2632    0.7029    0.0000 O   0  0  0  0  0  2  0  0  0  0  0  0
    6.4511    0.5577    0.0000 C   0  0  0  0  0  4  0  0  0  0  0  0
    6.1708   -0.2182    0.0000 C   0  0  0  0  0  4  0  0  0  0  0  0
    5.3587   -0.3634    0.0000 C   0  0  0  0  0  4  0  0  0  0  0  0
    4.8269    0.2673    0.0000 C   0  0  0  0  0  4  0  0  0  0  0  0
    5.1072    1.0432    0.0000 C   0  0  0  0  0  4  0  0  0  0  0  0
    4.5754    1.6739    0.0000 C   0  0  0  0  0  4  0  0  0  0  0  0
    3.7633    1.5287    0.0000 C   0  0  0  0  0  4  0  0  0  0  0  0
    3.4830    0.7528    0.0000 C   0  0  0  0  0  4  0  0  0  0  0  0
    4.0148    0.1221    0.0000 C   0  0  0  0  0  4  0  0  0  0  0  0
    3.7345   -0.6539    0.0000 C   0  0  0  0  0  4  0  0  0  0  0  0
    2.9224   -0.7991    0.0000 C   0  0  0  0  0  4  0  0  0  0  0  0
    2.3905   -0.1684    0.0000 C   0  0  0  0  0  4  0  0  0  0  0  0
    2.0307   -0.9107    0.0000 C   0  0  0  0  0  4  0  0  0  0  0  0
    1.5660   -0.1416    0.0000 C   0  0  0  0  0  4  0  0  0  0  0  0
    1.3367    0.6509    0.0000 C   0  0  0  0  0  4  0  0  0  0  0  0
    2.0195    1.1139    0.0000 C   0  0  0  0  0  4  0  0  0  0  0  0
    2.6708    0.6076    0.0000 C   0  0  0  0  0  4  0  0  0  0  0  0
    1.0596   -0.7929    0.0000 O   0  0  0  0  0  2  0  0  0  0  0  0
    1.3705   -1.5571    0.0000 C   0  0  0  0  0  4  0  0  0  0  0  0
    2.1878   -1.6699    0.0000 O   0  0  0  0  0  2  0  0  0  0  0  0
    0.8642   -2.2084    0.0000 C   0  0  0  0  0  4  0  0  0  0  0  0
    1.1750   -2.9726    0.0000 C   0  0  0  0  0  4  0  0  0  0  0  0
    5.9193    1.1884    0.0000 C   0  0  0  0  0  4  0  0  0  0  0  0
  1  2  1  0  0  0  0 
  2  3  1  0  0  0  0 
  3  4  2  0  0  0  0 
  3  5  1  0  0  0  0 
  5  6  1  0  0  0  0 
  6  7  2  0  0  0  0 
  7  8  1  0  0  0  0 
  8  9  2  0  0  0  0 
  9 10  1  0  0  0  0 
 10 11  1  0  0  0  0 
 11 12  1  0  0  0  0 
 12 13  1  0  0  0  0 
 13 14  1  0  0  0  0 
  9 14  1  0  0  0  0 
 14 15  1  0  0  0  0 
 15 16  1  0  0  0  0 
 16 17  1  0  0  0  0 
 17 18  1  0  0  0  0 
 17 19  1  0  0  0  0 
 19 20  1  0  0  0  0 
 20 21  1  0  0  0  0 
 21 22  1  0  0  0  0 
 13 22  1  0  0  0  0 
 17 22  1  0  0  0  0 
 19 23  1  0  0  0  0 
 23 24  1  0  0  0  0 
 24 25  2  0  0  0  0 
 24 26  1  0  0  0  0 
 26 27  1  0  0  0  0 
 10 28  2  0  0  0  0 
  6 28  1  0  0  0  0 
M  END
> <Mol Weight>
384.5085

> <Formula>
C24H32O4

> <CdId>
205

> <RCDK_LipinskiFailures>
0

> <source>
FDA

> <name>
Estradiol dipropionate

> <ABUNDANCE>
No species found

> <BLABBER_CHARGE>


> <inchi>
1S/C24H32O4/c1-4-22(25)27-16-7-9-17-15(14-16)6-8-19-18(17)12-13-24(3)20(19)10-11-21(24)28-23(26)5-2/h7,9,14,18-21H,4-6,8,10-13H2,1-3H3

> <activity>
0

$$$$

  CDK     0331111707

 21 21  0  0  0  0  0  0  0  0999 V2000
   -2.1434   -2.8875    0.0000 C   0  0  0  0  0  4  0  0  0  0  0  0
   -1.4289   -2.4750    0.0000 O   0  0  0  0  0  2  0  0  0  0  0  0
   -1.4289   -1.6500    0.0000 C   0  0  0  0  0  4  0  0  0  0  0  0
   -2.1434   -1.2375    0.0000 O   0  0  0  0  0  2  0  0  0  0  0  0
   -0.7145   -1.2375    0.0000 C   0  0  0  0  0  4  0  0  0  0  0  0
   -0.7145   -0.4125    0.0000 C   0  0  0  0  0  4  0  0  0  0  0  0
   -0.0000    0.0000    0.0000 C   0  0  0  0  0  4  0  0  0  0  0  0
   -0.0000    0.8250    0.0000 C   0  0  0  0  0  4  0  0  0  0  0  0
    0.7145    1.2375    0.0000 C   0  0  0  0  0  4  0  0  0  0  0  0
    1.4289    0.8250    0.0000 C   0  0  0  0  0  4  0  0  0  0  0  0
    1.4289    0.0000    0.0000 C   0  0  0  0  0  4  0  0  0  0  0  0
    0.7145   -0.4125    0.0000 C   0  0  0  0  0  4  0  0  0  0  0  0
    2.1434    1.2375    0.0000 O   0  0  0  0  0  2  0  0  0  0  0  0
    2.8579    0.8250    0.0000 C   0  0  0  0  0  4  0  0  0  0  0  0
    3.5724    1.2375    0.0000 C   0  0  0  0  0  4  0  0  0  0  0  0
    3.5724    2.0625    0.0000 O   0  0  0  0  0  2  0  0  0  0  0  0
    4.2868    0.8250    0.0000 C   0  0  0  0  0  4  0  0  0  0  0  0
    5.0013    1.2375    0.0000 N   0  0  0  0  0  4  0  0  0  0  0  0
    5.7158    0.8250    0.0000 C   0  0  0  0  0  4  0  0  0  0  0  0
    6.4302    1.2375    0.0000 C   0  0  0  0  0  4  0  0  0  0  0  0
    5.7158    0.0000    0.0000 C   0  0  0  0  0  4  0  0  0  0  0  0
  1  2  1  0  0  0  0 
  2  3  1  0  0  0  0 
  3  4  2  0  0  0  0 
  3  5  1  0  0  0  0 
  5  6  1  0  0  0  0 
  6  7  1  0  0  0  0 
  7  8  2  0  0  0  0 
  8  9  1  0  0  0  0 
  9 10  2  0  0  0  0 
 10 11  1  0  0  0  0 
 11 12  2  0  0  0  0 
  7 12  1  0  0  0  0 
 10 13  1  0  0  0  0 
 13 14  1  0  0  0  0 
 14 15  1  0  0  0  0 
 15 16  1  0  0  0  0 
 15 17  1  0  0  0  0 
 17 18  1  0  0  0  0 
 18 19  1  0  0  0  0 
 19 20  1  0  0  0  0 
 19 21  1  0  0  0  0 
M  CHG  1  18   1
M  END
> <Mol Weight>
295.374

> <Formula>
C16H25NO4

> <CdId>
204

> <RCDK_LipinskiFailures>
0

> <source>
FDA

> <name>
Esmolol

> <ABUNDANCE>
100% at pH 4.8

> <BLABBER_CHARGE>
1

> <inchi>
1S/C16H25NO4/c1-12(2)17-10-14(18)11-21-15-7-4-13(5-8-15)6-9-16(19)20-3/h4-5,7-8,12,14,17-18H,6,9-11H2,1-3H3

> <activity>
0

$$$$

  CDK     0331111707

 30 32  0  0  0  0  0  0  0  0999 V2000
    2.0367    1.1759    0.0000 C   0  0  0  0  0  4  0  0  0  0  0  0
    2.7512    0.7634    0.0000 C   0  0  0  0  0  4  0  0  0  0  0  0
    2.7512   -0.0616    0.0000 C   0  0  0  0  0  4  0  0  0  0  0  0
    2.0367   -0.4741    0.0000 C   0  0  0  0  0  4  0  0  0  0  0  0
    2.0367   -1.2991    0.0000 C   0  0  0  0  0  4  0  0  0  0  0  0
    2.7041   -1.7840    0.0000 N   0  0  0  0  0  3  0  0  0  0  0  0
    2.4492   -2.5687    0.0000 C   0  0  0  0  0  4  0  0  0  0  0  0
    1.6242   -2.5687    0.0000 C   0  0  0  0  0  4  0  0  0  0  0  0
    1.1393   -3.2361    0.0000 C   0  0  0  0  0  4  0  0  0  0  0  0
    0.3188   -3.1499    0.0000 C   0  0  0  0  0  4  0  0  0  0  0  0
   -0.0168   -2.3962    0.0000 C   0  0  0  0  0  4  0  0  0  0  0  0
   -0.8372   -2.3099    0.0000 C   0  0  0  0  0  4  0  0  0  0  0  0
   -1.3893   -2.9230    0.0000 C   0  0  0  0  0  4  0  0  0  0  0  0
   -2.1429   -2.5875    0.0000 C   0  0  0  0  0  4  0  0  0  0  0  0
   -2.0567   -1.7670    0.0000 C   0  0  0  0  0  4  0  0  0  0  0  0
   -1.2497   -1.5955    0.0000 S   0  0  0  0  0  2  0  0  0  0  0  0
   -0.1661   -3.8173    0.0000 C   0  0  0  0  0  4  0  0  0  0  0  0
    0.1694   -4.5710    0.0000 O   0  0  0  0  0  2  0  0  0  0  0  0
   -0.9866   -3.7311    0.0000 O   0  0  0  0  0  2  0  0  0  0  0  0
    1.3693   -1.7840    0.0000 N   0  0  0  0  0  3  0  0  0  0  0  0
    0.5846   -1.5291    0.0000 C   0  0  0  0  0  4  0  0  0  0  0  0
    0.4131   -0.7221    0.0000 C   0  0  0  0  0  4  0  0  0  0  0  0
   -0.3715   -0.4672    0.0000 C   0  0  0  0  0  4  0  0  0  0  0  0
   -0.5430    0.3398    0.0000 C   0  0  0  0  0  4  0  0  0  0  0  0
    0.0701    0.8918    0.0000 C   0  0  0  0  0  4  0  0  0  0  0  0
    0.8547    0.6369    0.0000 C   0  0  0  0  0  4  0  0  0  0  0  0
    1.0262   -0.1701    0.0000 C   0  0  0  0  0  4  0  0  0  0  0  0
   -0.1015    1.6988    0.0000 C   0  0  0  0  0  4  0  0  0  0  0  0
   -0.8861    1.9537    0.0000 O   0  0  0  0  0  2  0  0  0  0  0  0
    0.5116    2.2508    0.0000 O   0  0  0  0  0  2  0  0  0  0  0  0
  1  2  1  0  0  0  0 
  2  3  1  0  0  0  0 
  3  4  1  0  0  0  0 
  4  5  1  0  0  0  0 
  5  6  2  0  0  0  0 
  6  7  1  0  0  0  0 
  7  8  2  0  0  0  0 
  9  8  1  4  0  0  0 
  9 10  2  0  0  0  0 
 10 11  1  0  0  0  0 
 11 12  1  0  0  0  0 
 12 13  2  0  0  0  0 
 13 14  1  0  0  0  0 
 14 15  2  0  0  0  0 
 15 16  1  0  0  0  0 
 12 16  1  0  0  0  0 
 10 17  1  0  0  0  0 
 17 18  2  0  0  0  0 
 17 19  1  0  0  0  0 
  8 20  1  0  0  0  0 
  5 20  1  0  0  0  0 
 20 21  1  0  0  0  0 
 21 22  1  0  0  0  0 
 22 23  2  0  0  0  0 
 23 24  1  0  0  0  0 
 24 25  2  0  0  0  0 
 25 26  1  0  0  0  0 
 26 27  2  0  0  0  0 
 22 27  1  0  0  0  0 
 25 28  1  0  0  0  0 
 28 29  2  0  0  0  0 
 28 30  1  0  0  0  0 
M  END
> <Mol Weight>
424.513

> <Formula>
C23H24N2O4S

> <CdId>
202

> <RCDK_LipinskiFailures>
0

> <source>
FDA

> <name>
Eprosartan

> <ABUNDANCE>
46.96% at pH 4.8

> <BLABBER_CHARGE>


> <inchi>
1S/C23H24N2O4S/c1-2-3-6-21-24-14-19(12-18(23(28)29)13-20-5-4-11-30-20)25(21)15-16-7-9-17(10-8-16)22(26)27/h4-5,7-12,14H,2-3,6,13,15H2,1H3,(H,26,27)(H,28,29)/b18-12+

> <activity>
0

$$$$

  CDK     0331111707

 25 26  0  0  0  0  0  0  0  0999 V2000
    6.2705    1.5031    0.0000 C   0  0  0  0  0  4  0  0  0  0  0  0
    6.9849    1.0906    0.0000 C   0  0  0  0  0  4  0  0  0  0  0  0
    7.6994    1.5031    0.0000 C   0  0  0  0  0  4  0  0  0  0  0  0
    8.4139    1.0906    0.0000 C   0  0  0  0  0  4  0  0  0  0  0  0
    9.1284    1.5031    0.0000 C   0  0  0  0  0  4  0  0  0  0  0  0
    9.8428    1.0906    0.0000 C   0  0  0  0  0  4  0  0  0  0  0  0
    9.8428    0.2656    0.0000 O   0  0  0  0  0  2  0  0  0  0  0  0
   10.5573    1.5031    0.0000 C   0  0  0  0  0  4  0  0  0  0  0  0
   11.2718    1.0906    0.0000 C   0  0  0  0  0  4  0  0  0  0  0  0
   11.9862    1.5031    0.0000 C   0  0  0  0  0  4  0  0  0  0  0  0
   12.0725    2.3236    0.0000 C   0  0  0  0  0  4  0  0  0  0  0  0
   11.4594    2.8756    0.0000 O   0  0  0  0  0  2  0  0  0  0  0  0
   12.8795    2.4951    0.0000 C   0  0  0  0  0  4  0  0  0  0  0  0
   13.2920    1.7806    0.0000 C   0  0  0  0  0  4  0  0  0  0  0  0
   14.0456    1.4451    0.0000 O   0  0  0  0  0  2  0  0  0  0  0  0
   13.9594    0.6246    0.0000 C   0  0  0  0  0  4  0  0  0  0  0  0
   14.5725    0.0725    0.0000 C   0  0  0  0  0  4  0  0  0  0  0  0
   15.3571    0.3275    0.0000 C   0  0  0  0  0  4  0  0  0  0  0  0
   15.9702   -0.2245    0.0000 C   0  0  0  0  0  4  0  0  0  0  0  0
   16.7548    0.0304    0.0000 C   0  0  0  0  0  4  0  0  0  0  0  0
   17.3679   -0.5216    0.0000 C   0  0  0  0  0  4  0  0  0  0  0  0
   18.1525   -0.2667    0.0000 O   0  0  0  0  0  2  0  0  0  0  0  0
   17.1964   -1.3286    0.0000 O   0  0  0  0  0  2  0  0  0  0  0  0
   13.1524    0.4531    0.0000 C   0  0  0  0  0  4  0  0  0  0  0  0
   12.7399    1.1675    0.0000 C   0  0  0  0  0  4  0  0  0  0  0  0
  1  2  1  0  0  0  0 
  2  3  1  0  0  0  0 
  3  4  1  0  0  0  0 
  4  5  1  0  0  0  0 
  5  6  1  0  0  0  0 
  6  7  1  0  0  0  0 
  8  6  1  4  0  0  0 
  8  9  2  0  0  0  0 
  9 10  1  0  0  0  0 
 10 11  1  0  0  0  0 
 11 12  1  0  0  0  0 
 11 13  1  0  0  0  0 
 13 14  1  0  0  0  0 
 14 15  1  0  0  0  0 
 15 16  1  0  0  0  0 
 16 17  2  0  0  0  0 
 17 18  1  4  0  0  0 
 18 19  1  0  0  0  0 
 19 20  1  0  0  0  0 
 20 21  1  0  0  0  0 
 21 22  2  0  0  0  0 
 21 23  1  0  0  0  0 
 16 24  1  0  0  0  0 
 24 25  1  0  0  0  0 
 14 25  1  0  0  0  0 
 10 25  1  0  0  0  0 
M  END
> <Mol Weight>
352.4651

> <Formula>
C20H32O5

> <CdId>
201

> <RCDK_LipinskiFailures>
0

> <source>
FDA

> <name>
Epoprostenol

> <ABUNDANCE>
56.76% at pH 4.8

> <BLABBER_CHARGE>


> <inchi>
1S/C20H32O5/c1-2-3-4-7-14(21)10-11-16-17-12-15(8-5-6-9-20(23)24)25-19(17)13-18(16)22/h8,10-11,14,16-19,21-22H,2-7,9,12-13H2,1H3,(H,23,24)/b11-10+,15-8-

> <activity>
0

$$$$

  CDK     0331111707

 13 13  0  0  0  0  0  0  0  0999 V2000
    4.2868   -0.0000    0.0000 C   0  0  0  0  0  4  0  0  0  0  0  0
    3.5724   -0.4125    0.0000 N   0  0  0  0  0  4  0  0  0  0  0  0
    2.8579   -0.0000    0.0000 C   0  0  0  0  0  4  0  0  0  0  0  0
    2.1434   -0.4125    0.0000 C   0  0  0  0  0  4  0  0  0  0  0  0
    2.1434   -1.2375    0.0000 O   0  0  0  0  0  2  0  0  0  0  0  0
    1.4289   -0.0000    0.0000 C   0  0  0  0  0  4  0  0  0  0  0  0
    0.7145   -0.4125    0.0000 C   0  0  0  0  0  4  0  0  0  0  0  0
    0.0000   -0.0000    0.0000 C   0  0  0  0  0  4  0  0  0  0  0  0
    0.0000    0.8250    0.0000 C   0  0  0  0  0  4  0  0  0  0  0  0
   -0.7145    1.2375    0.0000 O   0  0  0  0  0  2  0  0  0  0  0  0
    0.7145    1.2375    0.0000 C   0  0  0  0  0  4  0  0  0  0  0  0
    0.7145    2.0625    0.0000 O   0  0  0  0  0  2  0  0  0  0  0  0
    1.4289    0.8250    0.0000 C   0  0  0  0  0  4  0  0  0  0  0  0
  1  2  1  0  0  0  0 
  2  3  1  0  0  0  0 
  3  4  1  0  0  0  0 
  4  5  1  0  0  0  0 
  4  6  1  0  0  0  0 
  6  7  2  0  0  0  0 
  7  8  1  0  0  0  0 
  8  9  2  0  0  0  0 
  9 10  1  0  0  0  0 
  9 11  1  0  0  0  0 
 11 12  1  0  0  0  0 
 11 13  2  0  0  0  0 
  6 13  1  0  0  0  0 
M  CHG  1   2   1
M  END
> <Mol Weight>
183.2044

> <Formula>
C9H13NO3

> <CdId>
200

> <RCDK_LipinskiFailures>
0

> <source>
FDA

> <name>
Epinephrine

> <ABUNDANCE>
99.99% at pH 4.8

> <BLABBER_CHARGE>
1

> <inchi>
1S/C9H13NO3/c1-10-5-9(13)6-2-3-7(11)8(12)4-6/h2-4,9-13H,5H2,1H3

> <activity>
0

$$$$

  CDK     0331111707

 12 12  0  0  0  0  0  0  0  0999 V2000
   -0.7145    3.7125    0.0000 C   0  0  0  0  0  4  0  0  0  0  0  0
   -0.0000    3.3000    0.0000 N   0  0  0  0  0  4  0  0  0  0  0  0
   -0.0000    2.4750    0.0000 C   0  0  0  0  0  4  0  0  0  0  0  0
   -0.7145    2.0625    0.0000 C   0  0  0  0  0  4  0  0  0  0  0  0
    0.7145    2.0625    0.0000 C   0  0  0  0  0  4  0  0  0  0  0  0
    1.4289    2.4750    0.0000 O   0  0  0  0  0  2  0  0  0  0  0  0
    0.7145    1.2375    0.0000 C   0  0  0  0  0  4  0  0  0  0  0  0
    1.4289    0.8250    0.0000 C   0  0  0  0  0  4  0  0  0  0  0  0
    1.4289    0.0000    0.0000 C   0  0  0  0  0  4  0  0  0  0  0  0
    0.7145   -0.4125    0.0000 C   0  0  0  0  0  4  0  0  0  0  0  0
    0.0000   -0.0000    0.0000 C   0  0  0  0  0  4  0  0  0  0  0  0
   -0.0000    0.8250    0.0000 C   0  0  0  0  0  4  0  0  0  0  0  0
  1  2  1  0  0  0  0 
  2  3  1  0  0  0  0 
  3  4  1  0  0  0  0 
  3  5  1  0  0  0  0 
  5  6  1  0  0  0  0 
  5  7  1  0  0  0  0 
  7  8  2  0  0  0  0 
  8  9  1  0  0  0  0 
  9 10  2  0  0  0  0 
 10 11  1  0  0  0  0 
 11 12  2  0  0  0  0 
  7 12  1  0  0  0  0 
M  CHG  1   2   1
M  END
> <Mol Weight>
165.2322

> <Formula>
C10H15NO

> <CdId>
199

> <RCDK_LipinskiFailures>
0

> <source>
FDA

> <name>
Ephedrine

> <ABUNDANCE>
100% at pH 4.8

> <BLABBER_CHARGE>
1

> <inchi>
1S/C10H15NO/c1-8(11-2)10(12)9-6-4-3-5-7-9/h3-8,10-12H,1-2H3

> <activity>
0

$$$$

  CDK     0331111707

 18 19  0  0  0  0  0  0  0  0999 V2000
    2.7845    0.6979    0.0000 C   0  0  0  0  0  4  0  0  0  0  0  0
    2.0701    1.1104    0.0000 N   0  0  0  0  0  3  0  0  0  0  0  0
    1.3556    0.6979    0.0000 C   0  0  0  0  0  4  0  0  0  0  0  0
    1.3556   -0.1271    0.0000 O   0  0  0  0  0  2  0  0  0  0  0  0
    0.6411    1.1104    0.0000 C   0  0  0  0  0  4  0  0  0  0  0  0
    0.6411    1.9354    0.0000 C   0  0  0  0  0  4  0  0  0  0  0  0
   -0.1435    2.1904    0.0000 N   0  0  0  0  0  3  0  0  0  0  0  0
   -0.6284    1.5229    0.0000 C   0  0  0  0  0  4  0  0  0  0  0  0
   -0.1435    0.8555    0.0000 N   0  0  0  0  0  3  0  0  0  0  0  0
   -0.3984    0.0709    0.0000 C   0  0  0  0  0  4  0  0  0  0  0  0
   -1.2054   -0.1006    0.0000 C   0  0  0  0  0  4  0  0  0  0  0  0
   -1.7575    0.5124    0.0000 O   0  0  0  0  0  2  0  0  0  0  0  0
   -1.4604   -0.8853    0.0000 C   0  0  0  0  0  4  0  0  0  0  0  0
   -2.2673   -1.0568    0.0000 O   0  0  0  0  0  2  0  0  0  0  0  0
    1.3556    2.3479    0.0000 N   0  0  0  0  0  3  0  0  0  0  0  0
    1.3556    3.1729    0.0000 C   0  0  0  0  0  4  0  0  0  0  0  0
    2.0701    1.9354    0.0000 C   0  0  0  0  0  4  0  0  0  0  0  0
    2.7845    2.3479    0.0000 O   0  0  0  0  0  2  0  0  0  0  0  0
  1  2  1  0  0  0  0 
  2  3  1  0  0  0  0 
  3  4  2  0  0  0  0 
  3  5  1  0  0  0  0 
  5  6  2  0  0  0  0 
  6  7  1  0  0  0  0 
  7  8  2  0  0  0  0 
  8  9  1  0  0  0  0 
  5  9  1  0  0  0  0 
  9 10  1  0  0  0  0 
 10 11  1  0  0  0  0 
 11 12  1  0  0  0  0 
 11 13  1  0  0  0  0 
 13 14  1  0  0  0  0 
  6 15  1  0  0  0  0 
 15 16  1  0  0  0  0 
 15 17  1  0  0  0  0 
  2 17  1  0  0  0  0 
 17 18  2  0  0  0  0 
M  END
> <Mol Weight>
254.2426

> <Formula>
C10H14N4O4

> <CdId>
197

> <RCDK_LipinskiFailures>
0

> <source>
FDA

> <name>
Dyphylline

> <ABUNDANCE>
99.96% at pH 4.8

> <BLABBER_CHARGE>


> <inchi>
1S/C10H14N4O4/c1-12-8-7(9(17)13(2)10(12)18)14(5-11-8)3-6(16)4-15/h5-6,15-16H,3-4H2,1-2H3

> <activity>
0

$$$$

  CDK     0331111707

 20 21  0  0  0  0  0  0  0  0999 V2000
   -2.4750   -2.2539    0.0000 C   0  0  0  0  0  4  0  0  0  0  0  0
   -1.7605   -2.6664    0.0000 N   0  0  0  0  0  4  0  0  0  0  0  0
   -1.7605   -3.4914    0.0000 C   0  0  0  0  0  4  0  0  0  0  0  0
   -1.0461   -2.2539    0.0000 C   0  0  0  0  0  4  0  0  0  0  0  0
   -0.3316   -2.6664    0.0000 C   0  0  0  0  0  4  0  0  0  0  0  0
    0.3829   -2.2539    0.0000 O   0  0  0  0  0  2  0  0  0  0  0  0
    1.0974   -2.6664    0.0000 C   0  0  0  0  0  4  0  0  0  0  0  0
    0.6849   -3.3809    0.0000 C   0  0  0  0  0  4  0  0  0  0  0  0
    1.8118   -3.0789    0.0000 C   0  0  0  0  0  4  0  0  0  0  0  0
    2.5263   -2.6664    0.0000 C   0  0  0  0  0  4  0  0  0  0  0  0
    3.2408   -3.0789    0.0000 C   0  0  0  0  0  4  0  0  0  0  0  0
    3.2408   -3.9039    0.0000 C   0  0  0  0  0  4  0  0  0  0  0  0
    2.5263   -4.3164    0.0000 C   0  0  0  0  0  4  0  0  0  0  0  0
    1.8118   -3.9039    0.0000 C   0  0  0  0  0  4  0  0  0  0  0  0
    1.5099   -1.9520    0.0000 C   0  0  0  0  0  4  0  0  0  0  0  0
    1.0974   -1.2375    0.0000 C   0  0  0  0  0  4  0  0  0  0  0  0
    1.5099   -0.5230    0.0000 C   0  0  0  0  0  4  0  0  0  0  0  0
    2.3349   -0.5230    0.0000 C   0  0  0  0  0  4  0  0  0  0  0  0
    2.7474   -1.2375    0.0000 C   0  0  0  0  0  4  0  0  0  0  0  0
    2.3349   -1.9520    0.0000 N   0  0  0  0  0  3  0  0  0  0  0  0
  1  2  1  0  0  0  0 
  2  3  1  0  0  0  0 
  2  4  1  0  0  0  0 
  4  5  1  0  0  0  0 
  5  6  1  0  0  0  0 
  6  7  1  0  0  0  0 
  7  8  1  0  0  0  0 
  7  9  1  0  0  0  0 
  9 10  2  0  0  0  0 
 10 11  1  0  0  0  0 
 11 12  2  0  0  0  0 
 12 13  1  0  0  0  0 
 13 14  2  0  0  0  0 
  9 14  1  0  0  0  0 
  7 15  1  0  0  0  0 
 15 16  2  0  0  0  0 
 16 17  1  0  0  0  0 
 17 18  2  0  0  0  0 
 18 19  1  0  0  0  0 
 19 20  2  0  0  0  0 
 15 20  1  0  0  0  0 
M  CHG  1   2   1
M  END
> <Mol Weight>
270.3694

> <Formula>
C17H22N2O

> <CdId>
195

> <RCDK_LipinskiFailures>
0

> <source>
FDA

> <name>
Doxylamine

> <ABUNDANCE>
74.84% at pH 4.8

> <BLABBER_CHARGE>
1

> <inchi>
1S/C17H22N2O/c1-17(20-14-13-19(2)3,15-9-5-4-6-10-15)16-11-7-8-12-18-16/h4-12H,13-14H2,1-3H3

> <activity>
0

$$$$

  CDK     0331111707

 32 35  0  0  0  0  0  0  0  0999 V2000
    2.1434    2.0625    0.0000 C   0  0  0  0  0  4  0  0  0  0  0  0
    2.1434    1.2375    0.0000 C   0  0  0  0  0  4  0  0  0  0  0  0
    2.8579    0.8250    0.0000 C   0  0  0  0  0  4  0  0  0  0  0  0
    3.5724    1.2375    0.0000 C   0  0  0  0  0  4  0  0  0  0  0  0
    3.5724    2.0625    0.0000 O   0  0  0  0  0  2  0  0  0  0  0  0
    4.2868    0.8250    0.0000 C   0  0  0  0  0  4  0  0  0  0  0  0
    5.0013    1.2375    0.0000 C   0  0  0  0  0  4  0  0  0  0  0  0
    5.0013    2.0625    0.0000 N   0  0  0  0  0  4  0  0  0  0  0  0
    5.7158    2.4750    0.0000 C   0  0  0  0  0  4  0  0  0  0  0  0
    4.2868    2.4750    0.0000 C   0  0  0  0  0  4  0  0  0  0  0  0
    5.7158    0.8250    0.0000 C   0  0  0  0  0  4  0  0  0  0  0  0
    6.4302    1.2375    0.0000 O   0  0  0  0  0  2  0  0  0  0  0  0
    5.7158   -0.0000    0.0000 C   0  0  0  0  0  4  0  0  0  0  0  0
    6.4302   -0.4125    0.0000 C   0  0  0  0  0  4  0  0  0  0  0  0
    7.1447   -0.0000    0.0000 N   0  0  0  0  0  4  0  0  0  0  0  0
    6.4302   -1.2375    0.0000 O   0  0  0  0  0  1  0  0  0  0  0  0
    5.0013   -0.4125    0.0000 C   0  0  0  0  0  4  0  0  0  0  0  0
    5.0013   -1.2375    0.0000 O   0  0  0  0  0  2  0  0  0  0  0  0
    4.2868    0.0000    0.0000 C   0  0  0  0  0  4  0  0  0  0  0  0
    4.2868   -0.8250    0.0000 O   0  0  0  0  0  2  0  0  0  0  0  0
    3.5724   -0.4125    0.0000 C   0  0  0  0  0  4  0  0  0  0  0  0
    3.5724   -1.2375    0.0000 O   0  0  0  0  0  2  0  0  0  0  0  0
    2.8579    0.0000    0.0000 C   0  0  0  0  0  4  0  0  0  0  0  0
    2.1434   -0.4125    0.0000 C   0  0  0  0  0  4  0  0  0  0  0  0
    2.1434   -1.2375    0.0000 O   0  0  0  0  0  2  0  0  0  0  0  0
    1.4289    0.0000    0.0000 C   0  0  0  0  0  4  0  0  0  0  0  0
    0.7145   -0.4125    0.0000 C   0  0  0  0  0  4  0  0  0  0  0  0
    0.7145   -1.2375    0.0000 O   0  0  0  0  0  2  0  0  0  0  0  0
    0.0000   -0.0000    0.0000 C   0  0  0  0  0  4  0  0  0  0  0  0
    0.0000    0.8250    0.0000 C   0  0  0  0  0  4  0  0  0  0  0  0
    0.7145    1.2375    0.0000 C   0  0  0  0  0  4  0  0  0  0  0  0
    1.4289    0.8250    0.0000 C   0  0  0  0  0  4  0  0  0  0  0  0
  1  2  1  0  0  0  0 
  2  3  1  0  0  0  0 
  3  4  1  0  0  0  0 
  4  5  1  0  0  0  0 
  4  6  1  0  0  0  0 
  6  7  1  0  0  0  0 
  7  8  1  0  0  0  0 
  8  9  1  0  0  0  0 
  8 10  1  0  0  0  0 
  7 11  1  0  0  0  0 
 11 12  2  0  0  0  0 
 11 13  1  0  0  0  0 
 13 14  2  0  0  0  0 
 14 15  1  4  0  0  0 
 14 16  1  0  0  0  0 
 13 17  1  0  0  0  0 
 17 18  2  0  0  0  0 
 17 19  1  0  0  0  0 
  6 19  1  0  0  0  0 
 19 20  1  0  0  0  0 
 19 21  1  0  0  0  0 
 21 22  2  0  0  0  0 
 21 23  1  0  0  0  0 
  3 23  1  0  0  0  0 
 23 24  2  0  0  0  0 
 24 25  1  0  0  0  0 
 24 26  1  0  0  0  0 
 26 27  2  0  0  0  0 
 27 28  1  0  0  0  0 
 27 29  1  0  0  0  0 
 29 30  2  0  0  0  0 
 30 31  1  0  0  0  0 
 31 32  2  0  0  0  0 
  2 32  1  0  0  0  0 
 26 32  1  0  0  0  0 
M  CHG  1   8   1
M  CHG  1  15   1
M  CHG  1  16  -1
M  END
> <Mol Weight>
444.4346

> <Formula>
C22H24N2O8

> <CdId>
194

> <RCDK_LipinskiFailures>
0

> <source>
BYLER

> <name>
doxycycline

> <ABUNDANCE>
55.17% at pH 4.8

> <BLABBER_CHARGE>
1

> <CHECK TAUTOMER>
Multiple tautomers in input structure. Results could be inaccurate.

> <inchi>
1S/C22H24N2O8/c1-7-8-5-4-6-9(25)11(8)16(26)12-10(7)17(27)14-15(24(2)3)18(28)13(21(23)31)20(30)22(14,32)19(12)29/h4-7,10,14-15,17,25-27,31-32H,23H2,1-3H3/b21-13+

> <activity>
0

$$$$

  CDK     0331111707

 19 21  0  0  0  0  0  0  0  0999 V2000
    2.7845    0.6979    0.0000 C   0  0  0  0  0  4  0  0  0  0  0  0
    2.0701    1.1104    0.0000 N   0  0  0  0  0  3  0  0  0  0  0  0
    1.3556    0.6979    0.0000 C   0  0  0  0  0  4  0  0  0  0  0  0
    1.3556   -0.1271    0.0000 O   0  0  0  0  0  2  0  0  0  0  0  0
    0.6411    1.1104    0.0000 C   0  0  0  0  0  4  0  0  0  0  0  0
    0.6411    1.9354    0.0000 C   0  0  0  0  0  4  0  0  0  0  0  0
   -0.1435    2.1904    0.0000 N   0  0  0  0  0  3  0  0  0  0  0  0
   -0.6284    1.5229    0.0000 C   0  0  0  0  0  4  0  0  0  0  0  0
   -0.1435    0.8555    0.0000 N   0  0  0  0  0  3  0  0  0  0  0  0
   -0.3984    0.0709    0.0000 C   0  0  0  0  0  4  0  0  0  0  0  0
   -1.2054   -0.1006    0.0000 C   0  0  0  0  0  4  0  0  0  0  0  0
   -1.5410   -0.8543    0.0000 O   0  0  0  0  0  2  0  0  0  0  0  0
   -2.3615   -0.7681    0.0000 C   0  0  0  0  0  4  0  0  0  0  0  0
   -2.5330    0.0389    0.0000 C   0  0  0  0  0  4  0  0  0  0  0  0
   -1.8185    0.4514    0.0000 O   0  0  0  0  0  2  0  0  0  0  0  0
    1.3556    2.3479    0.0000 N   0  0  0  0  0  3  0  0  0  0  0  0
    1.3556    3.1729    0.0000 C   0  0  0  0  0  4  0  0  0  0  0  0
    2.0701    1.9354    0.0000 C   0  0  0  0  0  4  0  0  0  0  0  0
    2.7845    2.3479    0.0000 O   0  0  0  0  0  2  0  0  0  0  0  0
  1  2  1  0  0  0  0 
  2  3  1  0  0  0  0 
  3  4  2  0  0  0  0 
  3  5  1  0  0  0  0 
  5  6  2  0  0  0  0 
  6  7  1  0  0  0  0 
  7  8  2  0  0  0  0 
  8  9  1  0  0  0  0 
  5  9  1  0  0  0  0 
  9 10  1  0  0  0  0 
 10 11  1  0  0  0  0 
 11 12  1  0  0  0  0 
 12 13  1  0  0  0  0 
 13 14  1  0  0  0  0 
 14 15  1  0  0  0  0 
 11 15  1  0  0  0  0 
  6 16  1  0  0  0  0 
 16 17  1  0  0  0  0 
 16 18  1  0  0  0  0 
  2 18  1  0  0  0  0 
 18 19  2  0  0  0  0 
M  END
> <Mol Weight>
266.2533

> <Formula>
C11H14N4O4

> <CdId>
192

> <RCDK_LipinskiFailures>
0

> <source>
FDA

> <name>
Doxofylline

> <ABUNDANCE>
99.95% at pH 4.8

> <BLABBER_CHARGE>


> <inchi>
1S/C11H14N4O4/c1-13-9-8(10(16)14(2)11(13)17)15(6-12-9)5-7-18-3-4-19-7/h6-7H,3-5H2,1-2H3

> <activity>
0

$$$$

  CDK     0331111707

 28 31  0  0  0  0  0  0  0  0999 V2000
    1.6208   -3.8378    0.0000 C   0  0  0  0  0  4  0  0  0  0  0  0
    1.9564   -3.0841    0.0000 C   0  0  0  0  0  4  0  0  0  0  0  0
    1.4715   -2.4167    0.0000 N   0  0  0  0  0  3  0  0  0  0  0  0
    0.6465   -2.4167    0.0000 C   0  0  0  0  0  4  0  0  0  0  0  0
    0.3915   -1.6320    0.0000 C   0  0  0  0  0  4  0  0  0  0  0  0
   -0.3931   -1.3771    0.0000 C   0  0  0  0  0  4  0  0  0  0  0  0
   -1.0062   -1.9291    0.0000 C   0  0  0  0  0  4  0  0  0  0  0  0
   -1.7908   -1.6742    0.0000 N   0  0  0  0  0  4  0  0  0  0  0  0
   -2.4039   -2.2262    0.0000 C   0  0  0  0  0  4  0  0  0  0  0  0
   -3.1885   -1.9713    0.0000 C   0  0  0  0  0  4  0  0  0  0  0  0
   -3.3600   -1.1643    0.0000 O   0  0  0  0  0  2  0  0  0  0  0  0
   -2.7469   -0.6123    0.0000 C   0  0  0  0  0  4  0  0  0  0  0  0
   -1.9623   -0.8672    0.0000 C   0  0  0  0  0  4  0  0  0  0  0  0
    1.0590   -1.1471    0.0000 C   0  0  0  0  0  4  0  0  0  0  0  0
    1.7264   -1.6320    0.0000 C   0  0  0  0  0  4  0  0  0  0  0  0
    2.5110   -1.3771    0.0000 O   0  0  0  0  0  2  0  0  0  0  0  0
    0.4517   -0.5887    0.0000 C   0  0  0  0  0  4  0  0  0  0  0  0
   -0.3355   -0.8354    0.0000 C   0  0  0  0  0  4  0  0  0  0  0  0
   -0.9428   -0.2770    0.0000 C   0  0  0  0  0  4  0  0  0  0  0  0
   -0.7629    0.5281    0.0000 C   0  0  0  0  0  4  0  0  0  0  0  0
    0.0244    0.7749    0.0000 C   0  0  0  0  0  4  0  0  0  0  0  0
    0.6317    0.2164    0.0000 C   0  0  0  0  0  4  0  0  0  0  0  0
    1.4640   -0.4284    0.0000 C   0  0  0  0  0  4  0  0  0  0  0  0
    1.0440    0.2817    0.0000 C   0  0  0  0  0  4  0  0  0  0  0  0
    1.4490    1.0005    0.0000 C   0  0  0  0  0  4  0  0  0  0  0  0
    2.2740    1.0091    0.0000 C   0  0  0  0  0  4  0  0  0  0  0  0
    2.6939    0.2990    0.0000 C   0  0  0  0  0  4  0  0  0  0  0  0
    2.2889   -0.4197    0.0000 C   0  0  0  0  0  4  0  0  0  0  0  0
  1  2  1  0  0  0  0 
  2  3  1  0  0  0  0 
  3  4  1  0  0  0  0 
  4  5  1  0  0  0  0 
  5  6  1  0  0  0  0 
  6  7  1  0  0  0  0 
  7  8  1  0  0  0  0 
  8  9  1  0  0  0  0 
  9 10  1  0  0  0  0 
 10 11  1  0  0  0  0 
 11 12  1  0  0  0  0 
 12 13  1  0  0  0  0 
  8 13  1  0  0  0  0 
  5 14  1  0  0  0  0 
 14 15  1  0  0  0  0 
  3 15  1  0  0  0  0 
 15 16  2  0  0  0  0 
 14 17  1  0  0  0  0 
 17 18  2  0  0  0  0 
 18 19  1  0  0  0  0 
 19 20  2  0  0  0  0 
 20 21  1  0  0  0  0 
 21 22  2  0  0  0  0 
 17 22  1  0  0  0  0 
 14 23  1  0  0  0  0 
 23 24  2  0  0  0  0 
 24 25  1  0  0  0  0 
 25 26  2  0  0  0  0 
 26 27  1  0  0  0  0 
 27 28  2  0  0  0  0 
 23 28  1  0  0  0  0 
M  CHG  1   8   1
M  END
> <Mol Weight>
378.5072

> <Formula>
C24H30N2O2

> <CdId>
191

> <RCDK_LipinskiFailures>
0

> <source>
BYLER

> <name>
doxapram

> <ABUNDANCE>
98.67% at pH 4.8

> <BLABBER_CHARGE>
1

> <inchi>
1S/C24H30N2O2/c1-2-26-19-22(13-14-25-15-17-28-18-16-25)24(23(26)27,20-9-5-3-6-10-20)21-11-7-4-8-12-21/h3-12,22H,2,13-19H2,1H3

> <activity>
0

$$$$

  CDK     0331111707

  8  7  0  0  0  0  0  0  0  0999 V2000
    0.0000   -1.4289    0.0000 C   0  0  0  0  0  4  0  0  0  0  0  0
    0.8250   -1.4289    0.0000 C   0  0  0  0  0  4  0  0  0  0  0  0
    1.2375   -0.7145    0.0000 N   0  0  0  0  0  3  0  0  0  0  0  0
    2.0625   -0.7145    0.0000 C   0  0  0  0  0  4  0  0  0  0  0  0
    2.4750    0.0000    0.0000 C   0  0  0  0  0  4  0  0  0  0  0  0
    0.8250    0.0000    0.0000 C   0  0  0  0  0  4  0  0  0  0  0  0
    1.2375    0.7145    0.0000 S   0  0  0  0  0  2  0  0  0  0  0  0
    0.0000    0.0000    0.0000 S   0  0  0  0  0  1  0  0  0  0  0  0
  1  2  1  0  0  0  0 
  2  3  1  0  0  0  0 
  3  4  1  0  0  0  0 
  4  5  1  0  0  0  0 
  3  6  1  0  0  0  0 
  6  7  2  0  0  0  0 
  6  8  1  0  0  0  0 
M  CHG  1   8  -1
M  END
> <Mol Weight>
149.278

> <Formula>
C5H11NS2

> <CdId>
188

> <RCDK_LipinskiFailures>
0

> <source>
FDA

> <name>
Ditiocarb

> <ABUNDANCE>
70.42% at pH 4.8

> <BLABBER_CHARGE>
-1

> <inchi>
1S/C5H11NS2/c1-3-6(4-2)5(7)8/h3-4H2,1-2H3,(H,7,8)

> <activity>
0

$$$$

  CDK     0331111707

 25 26  0  0  0  0  0  0  0  0999 V2000
    4.0145    0.1914    0.0000 C   0  0  0  0  0  4  0  0  0  0  0  0
    3.1895    0.1914    0.0000 C   0  0  0  0  0  4  0  0  0  0  0  0
    2.7770    0.9059    0.0000 C   0  0  0  0  0  4  0  0  0  0  0  0
    2.7770   -0.5230    0.0000 N   0  0  0  0  0  4  0  0  0  0  0  0
    1.9520   -0.5230    0.0000 C   0  0  0  0  0  4  0  0  0  0  0  0
    1.5395   -1.2375    0.0000 C   0  0  0  0  0  4  0  0  0  0  0  0
    0.7145   -1.2375    0.0000 C   0  0  0  0  0  4  0  0  0  0  0  0
    0.7145   -0.4125    0.0000 C   0  0  0  0  0  4  0  0  0  0  0  0
    0.0000   -0.0000    0.0000 N   0  0  0  0  0  3  0  0  0  0  0  0
    1.4289   -0.0000    0.0000 O   0  0  0  0  0  2  0  0  0  0  0  0
   -0.1105   -1.2375    0.0000 C   0  0  0  0  0  4  0  0  0  0  0  0
   -0.5230   -1.9520    0.0000 C   0  0  0  0  0  4  0  0  0  0  0  0
   -1.3480   -1.9520    0.0000 C   0  0  0  0  0  4  0  0  0  0  0  0
   -1.7605   -1.2375    0.0000 C   0  0  0  0  0  4  0  0  0  0  0  0
   -1.3480   -0.5230    0.0000 C   0  0  0  0  0  4  0  0  0  0  0  0
   -0.5230   -0.5230    0.0000 C   0  0  0  0  0  4  0  0  0  0  0  0
    0.7145   -2.0625    0.0000 C   0  0  0  0  0  4  0  0  0  0  0  0
    1.4289   -2.4750    0.0000 C   0  0  0  0  0  4  0  0  0  0  0  0
    1.4289   -3.3000    0.0000 C   0  0  0  0  0  4  0  0  0  0  0  0
    0.7145   -3.7125    0.0000 C   0  0  0  0  0  4  0  0  0  0  0  0
    0.0000   -3.3000    0.0000 C   0  0  0  0  0  4  0  0  0  0  0  0
    0.0000   -2.4750    0.0000 N   0  0  0  0  0  3  0  0  0  0  0  0
    3.1895   -1.2375    0.0000 C   0  0  0  0  0  4  0  0  0  0  0  0
    4.0145   -1.2375    0.0000 C   0  0  0  0  0  4  0  0  0  0  0  0
    2.7770   -1.9520    0.0000 C   0  0  0  0  0  4  0  0  0  0  0  0
  1  2  1  0  0  0  0 
  2  3  1  0  0  0  0 
  2  4  1  0  0  0  0 
  4  5  1  0  0  0  0 
  5  6  1  0  0  0  0 
  6  7  1  0  0  0  0 
  7  8  1  0  0  0  0 
  8  9  1  0  0  0  0 
  8 10  2  0  0  0  0 
  7 11  1  0  0  0  0 
 11 12  2  0  0  0  0 
 12 13  1  0  0  0  0 
 13 14  2  0  0  0  0 
 14 15  1  0  0  0  0 
 15 16  2  0  0  0  0 
 11 16  1  0  0  0  0 
  7 17  1  0  0  0  0 
 17 18  2  0  0  0  0 
 18 19  1  0  0  0  0 
 19 20  2  0  0  0  0 
 20 21  1  0  0  0  0 
 21 22  2  0  0  0  0 
 17 22  1  0  0  0  0 
  4 23  1  0  0  0  0 
 23 24  1  0  0  0  0 
 23 25  1  0  0  0  0 
M  CHG  1   4   1
M  END
> <Mol Weight>
339.4745

> <Formula>
C21H29N3O

> <CdId>
187

> <RCDK_LipinskiFailures>
0

> <source>
FDA

> <name>
Disopyramide

> <ABUNDANCE>
65.36% at pH 4.8

> <BLABBER_CHARGE>
1

> <inchi>
1S/C21H29N3O/c1-16(2)24(17(3)4)15-13-21(20(22)25,18-10-6-5-7-11-18)19-12-8-9-14-23-19/h5-12,14,16-17H,13,15H2,1-4H3,(H2,22,25)

> <activity>
0

$$$$

  CDK     0331111707

 23 25  0  0  0  0  0  0  0  0999 V2000
    0.4125   -1.5395    0.0000 O   0  0  0  0  0  2  0  0  0  0  0  0
    0.8250   -0.8250    0.0000 C   0  0  0  0  0  4  0  0  0  0  0  0
    1.5395   -1.2375    0.0000 C   0  0  0  0  0  4  0  0  0  0  0  0
    2.2539   -0.8250    0.0000 C   0  0  0  0  0  4  0  0  0  0  0  0
    2.9684   -1.2375    0.0000 C   0  0  0  0  0  4  0  0  0  0  0  0
    3.6829   -0.8250    0.0000 N   0  0  0  0  0  4  0  0  0  0  0  0
    3.6829    0.0000    0.0000 C   0  0  0  0  0  4  0  0  0  0  0  0
    4.3974    0.4125    0.0000 C   0  0  0  0  0  4  0  0  0  0  0  0
    5.1118    0.0000    0.0000 C   0  0  0  0  0  4  0  0  0  0  0  0
    5.1118   -0.8250    0.0000 C   0  0  0  0  0  4  0  0  0  0  0  0
    4.3974   -1.2375    0.0000 C   0  0  0  0  0  4  0  0  0  0  0  0
    0.1105   -0.4125    0.0000 C   0  0  0  0  0  4  0  0  0  0  0  0
   -0.6039   -0.8250    0.0000 C   0  0  0  0  0  4  0  0  0  0  0  0
   -1.3184   -0.4125    0.0000 C   0  0  0  0  0  4  0  0  0  0  0  0
   -1.3184    0.4125    0.0000 C   0  0  0  0  0  4  0  0  0  0  0  0
   -0.6039    0.8250    0.0000 C   0  0  0  0  0  4  0  0  0  0  0  0
    0.1105    0.4125    0.0000 C   0  0  0  0  0  4  0  0  0  0  0  0
    1.2375   -0.1105    0.0000 C   0  0  0  0  0  4  0  0  0  0  0  0
    0.8250    0.6039    0.0000 C   0  0  0  0  0  4  0  0  0  0  0  0
    1.2375    1.3184    0.0000 C   0  0  0  0  0  4  0  0  0  0  0  0
    2.0625    1.3184    0.0000 C   0  0  0  0  0  4  0  0  0  0  0  0
    2.4750    0.6039    0.0000 C   0  0  0  0  0  4  0  0  0  0  0  0
    2.0625   -0.1105    0.0000 C   0  0  0  0  0  4  0  0  0  0  0  0
  1  2  1  0  0  0  0 
  2  3  1  0  0  0  0 
  3  4  1  0  0  0  0 
  4  5  1  0  0  0  0 
  5  6  1  0  0  0  0 
  6  7  1  0  0  0  0 
  7  8  1  0  0  0  0 
  8  9  1  0  0  0  0 
  9 10  1  0  0  0  0 
 10 11  1  0  0  0  0 
  6 11  1  0  0  0  0 
  2 12  1  0  0  0  0 
 12 13  2  0  0  0  0 
 13 14  1  0  0  0  0 
 14 15  2  0  0  0  0 
 15 16  1  0  0  0  0 
 16 17  2  0  0  0  0 
 12 17  1  0  0  0  0 
  2 18  1  0  0  0  0 
 18 19  2  0  0  0  0 
 19 20  1  0  0  0  0 
 20 21  2  0  0  0  0 
 21 22  1  0  0  0  0 
 22 23  2  0  0  0  0 
 18 23  1  0  0  0  0 
M  CHG  1   6   1
M  END
> <Mol Weight>
309.4452

> <Formula>
C21H27NO

> <CdId>
185

> <RCDK_LipinskiFailures>
0

> <source>
FDA

> <name>
Diphenidol

> <ABUNDANCE>
99.99% at pH 4.8

> <BLABBER_CHARGE>
1

> <inchi>
1S/C21H27NO/c23-21(19-11-4-1-5-12-19,20-13-6-2-7-14-20)15-10-18-22-16-8-3-9-17-22/h1-2,4-7,11-14,23H,3,8-10,15-18H2

> <activity>
0

$$$$

  CDK     0331111707

 47 53  0  0  0  0  0  0  0  0999 V2000
    5.3803    1.0236    0.0000 C   0  0  0  0  0  4  0  0  0  0  0  0
    4.5926    0.7785    0.0000 O   0  0  0  0  0  2  0  0  0  0  0  0
    4.4110   -0.0263    0.0000 C   0  0  0  0  0  4  0  0  0  0  0  0
    3.6041   -0.2645    0.0000 C   0  0  0  0  0  4  0  0  0  0  0  0
    3.3891   -1.0895    0.0000 C   0  0  0  0  0  4  0  0  0  0  0  0
    4.0227   -1.6312    0.0000 C   0  0  0  0  0  4  0  0  0  0  0  0
    4.8156   -1.3952    0.0000 C   0  0  0  0  0  4  0  0  0  0  0  0
    5.0392   -0.5896    0.0000 C   0  0  0  0  0  4  0  0  0  0  0  0
    5.8947   -0.7033    0.0000 O   0  0  0  0  0  2  0  0  0  0  0  0
    6.6559   -1.1132    0.0000 C   0  0  0  0  0  4  0  0  0  0  0  0
    6.6713   -1.9527    0.0000 C   0  0  0  0  0  4  0  0  0  0  0  0
    7.3833   -2.3974    0.0000 C   0  0  0  0  0  4  0  0  0  0  0  0
    8.1082   -1.9717    0.0000 C   0  0  0  0  0  4  0  0  0  0  0  0
    8.8361   -2.3824    0.0000 C   0  0  0  0  0  4  0  0  0  0  0  0
    8.8347   -3.2108    0.0000 C   0  0  0  0  0  4  0  0  0  0  0  0
    8.1212   -3.6358    0.0000 N   0  0  0  0  0  4  0  0  0  0  0  0
    8.1469   -4.4604    0.0000 C   0  0  0  0  0  4  0  0  0  0  0  0
    7.3785   -3.2541    0.0000 C   0  0  0  0  0  4  0  0  0  0  0  0
    6.9014   -3.9716    0.0000 C   0  0  0  0  0  4  0  0  0  0  0  0
    6.2251   -4.5020    0.0000 C   0  0  0  0  0  4  0  0  0  0  0  0
    5.7173   -3.8399    0.0000 C   0  0  0  0  0  4  0  0  0  0  0  0
    4.8912   -3.9018    0.0000 C   0  0  0  0  0  4  0  0  0  0  0  0
    4.5013   -4.6415    0.0000 C   0  0  0  0  0  4  0  0  0  0  0  0
    5.0070   -5.3224    0.0000 C   0  0  0  0  0  4  0  0  0  0  0  0
    5.8463   -5.2588    0.0000 C   0  0  0  0  0  4  0  0  0  0  0  0
    3.6599   -4.3880    0.0000 O   0  0  0  0  0  2  0  0  0  0  0  0
    2.8481   -4.0334    0.0000 C   0  0  0  0  0  4  0  0  0  0  0  0
    2.5608   -4.8225    0.0000 C   0  0  0  0  0  4  0  0  0  0  0  0
    3.1097   -5.4384    0.0000 O   0  0  0  0  0  2  0  0  0  0  0  0
    2.8508   -6.2217    0.0000 C   0  0  0  0  0  4  0  0  0  0  0  0
    1.7574   -5.0142    0.0000 C   0  0  0  0  0  4  0  0  0  0  0  0
    1.1890   -4.4136    0.0000 C   0  0  0  0  0  4  0  0  0  0  0  0
    1.4342   -3.6181    0.0000 C   0  0  0  0  0  4  0  0  0  0  0  0
    0.8190   -3.0542    0.0000 C   0  0  0  0  0  4  0  0  0  0  0  0
    1.0005   -2.2477    0.0000 C   0  0  0  0  0  4  0  0  0  0  0  0
    1.7887   -2.0008    0.0000 N   0  0  0  0  0  4  0  0  0  0  0  0
    1.3972   -1.2746    0.0000 C   0  0  0  0  0  4  0  0  0  0  0  0
    2.4274   -1.4787    0.0000 C   0  0  0  0  0  4  0  0  0  0  0  0
    2.4309   -2.5360    0.0000 C   0  0  0  0  0  4  0  0  0  0  0  0
    2.8713   -1.7837    0.0000 C   0  0  0  0  0  4  0  0  0  0  0  0
    2.2576   -3.3954    0.0000 C   0  0  0  0  0  4  0  0  0  0  0  0
    1.5220   -5.8049    0.0000 O   0  0  0  0  0  2  0  0  0  0  0  0
    0.7195   -5.9964    0.0000 C   0  0  0  0  0  4  0  0  0  0  0  0
    8.1288   -1.1367    0.0000 C   0  0  0  0  0  4  0  0  0  0  0  0
    7.4029   -0.7291    0.0000 C   0  0  0  0  0  4  0  0  0  0  0  0
    7.4180    0.0957    0.0000 O   0  0  0  0  0  2  0  0  0  0  0  0
    6.7113    0.5213    0.0000 C   0  0  0  0  0  4  0  0  0  0  0  0
  1  2  1  0  0  0  0 
  2  3  1  0  0  0  0 
  3  4  2  0  0  0  0 
  4  5  1  0  0  0  0 
  5  6  2  0  0  0  0 
  6  7  1  0  0  0  0 
  7  8  2  0  0  0  0 
  3  8  1  0  0  0  0 
  8  9  1  0  0  0  0 
  9 10  1  0  0  0  0 
 10 11  2  0  0  0  0 
 11 12  1  0  0  0  0 
 12 13  2  0  0  0  0 
 13 14  1  0  0  0  0 
 14 15  1  0  0  0  0 
 15 16  1  0  0  0  0 
 16 17  1  0  0  0  0 
 16 18  1  0  0  0  0 
 12 18  1  0  0  0  0 
 18 19  1  0  0  0  0 
 19 20  1  0  0  0  0 
 20 21  2  0  0  0  0 
 21 22  1  0  0  0  0 
 22 23  2  0  0  0  0 
 23 24  1  0  0  0  0 
 24 25  2  0  0  0  0 
 20 25  1  0  0  0  0 
 23 26  1  0  0  0  0 
 26 27  1  0  0  0  0 
 27 28  2  0  0  0  0 
 28 29  1  0  0  0  0 
 29 30  1  0  0  0  0 
 28 31  1  0  0  0  0 
 31 32  2  0  0  0  0 
 32 33  1  0  0  0  0 
 33 34  1  0  0  0  0 
 34 35  1  0  0  0  0 
 35 36  1  0  0  0  0 
 36 37  1  0  0  0  0 
 36 38  1  0  0  0  0 
 36 39  1  0  0  0  0 
 39 40  1  0  0  0  0 
  5 40  1  0  0  0  0 
 39 41  1  0  0  0  0 
 33 41  2  0  0  0  0 
 27 41  1  0  0  0  0 
 31 42  1  0  0  0  0 
 42 43  1  0  0  0  0 
 13 44  1  0  0  0  0 
 44 45  2  0  0  0  0 
 10 45  1  0  0  0  0 
 45 46  1  0  0  0  0 
 46 47  1  0  0  0  0 
M  CHG  1  16   1
M  CHG  1  36   1
M  END
> <Mol Weight>
637.7844

> <Formula>
C39H45N2O6

> <CdId>
183

> <RCDK_LipinskiFailures>
0

> <source>
FDA

> <name>
Dimethyltubocurarine

> <ABUNDANCE>
99.96% at pH 4.8

> <BLABBER_CHARGE>
2

> <inchi>
1S/C39H45N2O6/c1-40-16-14-26-21-34(43-5)35-23-29(26)30(40)18-24-8-11-28(12-9-24)46-39-37-27(22-36(44-6)38(39)45-7)15-17-41(2,3)31(37)19-25-10-13-32(47-35)33(20-25)42-4/h8-13,20-23,30-31H,14-19H2,1-7H3/q+1

> <activity>
0

$$$$

  CDK     0331111707

 22 24  0  0  0  0  0  0  0  0999 V2000
    2.1434    1.2375    0.0000 C   0  0  0  0  0  4  0  0  0  0  0  0
    2.8579    0.8250    0.0000 N   0  0  0  0  0  4  0  0  0  0  0  0
    2.8579    0.0000    0.0000 C   0  0  0  0  0  4  0  0  0  0  0  0
    3.5724    1.2375    0.0000 C   0  0  0  0  0  4  0  0  0  0  0  0
    4.2868    0.8250    0.0000 C   0  0  0  0  0  4  0  0  0  0  0  0
    5.0013    1.2375    0.0000 C   0  0  0  0  0  4  0  0  0  0  0  0
    5.7158    0.8250    0.0000 N   0  0  0  0  0  3  0  0  0  0  0  0
    6.4302    1.2375    0.0000 C   0  0  0  0  0  4  0  0  0  0  0  0
    6.4302    2.0625    0.0000 C   0  0  0  0  0  4  0  0  0  0  0  0
    7.1447    2.4750    0.0000 C   0  0  0  0  0  4  0  0  0  0  0  0
    7.8592    2.0625    0.0000 C   0  0  0  0  0  4  0  0  0  0  0  0
    7.8592    1.2375    0.0000 C   0  0  0  0  0  4  0  0  0  0  0  0
    7.1447    0.8250    0.0000 C   0  0  0  0  0  4  0  0  0  0  0  0
    7.1447    0.0000    0.0000 C   0  0  0  0  0  4  0  0  0  0  0  0
    7.9572    0.1433    0.0000 C   0  0  0  0  0  4  0  0  0  0  0  0
    7.4269   -0.7752    0.0000 C   0  0  0  0  0  4  0  0  0  0  0  0
    6.4302   -0.4125    0.0000 C   0  0  0  0  0  4  0  0  0  0  0  0
    6.4302   -1.2375    0.0000 C   0  0  0  0  0  4  0  0  0  0  0  0
    5.7158   -1.6500    0.0000 C   0  0  0  0  0  4  0  0  0  0  0  0
    5.0013   -1.2375    0.0000 C   0  0  0  0  0  4  0  0  0  0  0  0
    5.0013   -0.4125    0.0000 C   0  0  0  0  0  4  0  0  0  0  0  0
    5.7158    0.0000    0.0000 C   0  0  0  0  0  4  0  0  0  0  0  0
  1  2  1  0  0  0  0 
  2  3  1  0  0  0  0 
  2  4  1  0  0  0  0 
  4  5  1  0  0  0  0 
  5  6  1  0  0  0  0 
  6  7  1  0  0  0  0 
  7  8  1  0  0  0  0 
  8  9  2  0  0  0  0 
  9 10  1  0  0  0  0 
 10 11  2  0  0  0  0 
 11 12  1  0  0  0  0 
 12 13  2  0  0  0  0 
  8 13  1  0  0  0  0 
 13 14  1  0  0  0  0 
 14 15  1  0  0  0  0 
 14 16  1  0  0  0  0 
 14 17  1  0  0  0  0 
 17 18  2  0  0  0  0 
 18 19  1  0  0  0  0 
 19 20  2  0  0  0  0 
 20 21  1  0  0  0  0 
 21 22  2  0  0  0  0 
 17 22  1  0  0  0  0 
  7 22  1  0  0  0  0 
M  CHG  1   2   1
M  END
> <Mol Weight>
294.4338

> <Formula>
C20H26N2

> <CdId>
182

> <RCDK_LipinskiFailures>
0

> <source>
FDA

> <name>
Dimetacrine

> <ABUNDANCE>
100% at pH 4.8

> <BLABBER_CHARGE>
1

> <inchi>
1S/C20H26N2/c1-20(2)16-10-5-7-12-18(16)22(15-9-14-21(3)4)19-13-8-6-11-17(19)20/h5-8,10-13H,9,14-15H2,1-4H3

> <activity>
0

$$$$

  CDK     0331111707

 14 15  0  0  0  0  0  0  0  0999 V2000
    2.1434   -2.8875    0.0000 N   0  0  0  0  0  3  0  0  0  0  0  0
    1.4289   -2.4750    0.0000 N   0  0  0  0  0  3  0  0  0  0  0  0
    1.4289   -1.6500    0.0000 C   0  0  0  0  0  4  0  0  0  0  0  0
    0.7145   -1.2375    0.0000 N   0  0  0  0  0  3  0  0  0  0  0  0
    0.7145   -0.4125    0.0000 N   0  0  0  0  0  3  0  0  0  0  0  0
    1.4289    0.0000    0.0000 C   0  0  0  0  0  4  0  0  0  0  0  0
    1.4289    0.8250    0.0000 N   0  0  0  0  0  3  0  0  0  0  0  0
    0.7145    1.2375    0.0000 N   0  0  0  0  0  3  0  0  0  0  0  0
    2.1434   -0.4125    0.0000 C   0  0  0  0  0  4  0  0  0  0  0  0
    2.8579    0.0000    0.0000 C   0  0  0  0  0  4  0  0  0  0  0  0
    3.5724   -0.4125    0.0000 C   0  0  0  0  0  4  0  0  0  0  0  0
    3.5724   -1.2375    0.0000 C   0  0  0  0  0  4  0  0  0  0  0  0
    2.8579   -1.6500    0.0000 C   0  0  0  0  0  4  0  0  0  0  0  0
    2.1434   -1.2375    0.0000 C   0  0  0  0  0  4  0  0  0  0  0  0
  2  1  1  4  0  0  0 
  2  3  2  0  0  0  0 
  3  4  1  0  0  0  0 
  4  5  1  0  0  0  0 
  5  6  1  0  0  0  0 
  6  7  2  0  0  0  0 
  7  8  1  4  0  0  0 
  6  9  1  0  0  0  0 
  9 10  2  0  0  0  0 
 10 11  1  0  0  0  0 
 11 12  2  0  0  0  0 
 12 13  1  0  0  0  0 
 13 14  2  0  0  0  0 
  9 14  1  0  0  0  0 
  3 14  1  0  0  0  0 
M  END
> <Mol Weight>
190.2052

> <Formula>
C8H10N6

> <CdId>
181

> <RCDK_LipinskiFailures>
0

> <source>
FDA

> <name>
Dihydralazine

> <ABUNDANCE>
98.21% at pH 4.8

> <BLABBER_CHARGE>


> <inchi>
1S/C8H10N6/c9-11-7-5-3-1-2-4-6(5)8(12-10)14-13-7/h1-4H,9-10H2,(H,11,13)(H,12,14)

> <activity>
0

$$$$

  CDK     0331111707

 18 19  0  0  0  0  0  0  0  0999 V2000
    0.0000    0.0000    0.0000 O   0  0  0  0  0  1  0  0  0  0  0  0
    0.7145   -0.4125    0.0000 C   0  0  0  0  0  4  0  0  0  0  0  0
    1.4289   -0.0000    0.0000 O   0  0  0  0  0  2  0  0  0  0  0  0
    0.7145   -1.2375    0.0000 C   0  0  0  0  0  4  0  0  0  0  0  0
    1.4289   -1.6500    0.0000 C   0  0  0  0  0  4  0  0  0  0  0  0
    1.4289   -2.4750    0.0000 C   0  0  0  0  0  4  0  0  0  0  0  0
    0.7145   -2.8875    0.0000 C   0  0  0  0  0  4  0  0  0  0  0  0
    0.0000   -2.4750    0.0000 C   0  0  0  0  0  4  0  0  0  0  0  0
    0.0000   -1.6500    0.0000 C   0  0  0  0  0  4  0  0  0  0  0  0
   -0.7145   -1.2375    0.0000 O   0  0  0  0  0  2  0  0  0  0  0  0
    2.1434   -2.8875    0.0000 C   0  0  0  0  0  4  0  0  0  0  0  0
    2.8579   -2.4750    0.0000 C   0  0  0  0  0  4  0  0  0  0  0  0
    3.5724   -2.8875    0.0000 C   0  0  0  0  0  4  0  0  0  0  0  0
    3.5724   -3.7125    0.0000 C   0  0  0  0  0  4  0  0  0  0  0  0
    4.2868   -4.1250    0.0000 F   0  0  0  0  0  1  0  0  0  0  0  0
    2.8579   -4.1250    0.0000 C   0  0  0  0  0  4  0  0  0  0  0  0
    2.1434   -3.7125    0.0000 C   0  0  0  0  0  4  0  0  0  0  0  0
    1.4289   -4.1250    0.0000 F   0  0  0  0  0  1  0  0  0  0  0  0
  1  2  1  0  0  0  0 
  2  3  2  0  0  0  0 
  2  4  1  0  0  0  0 
  4  5  2  0  0  0  0 
  5  6  1  0  0  0  0 
  6  7  2  0  0  0  0 
  7  8  1  0  0  0  0 
  8  9  2  0  0  0  0 
  4  9  1  0  0  0  0 
  9 10  1  0  0  0  0 
  6 11  1  0  0  0  0 
 11 12  2  0  0  0  0 
 12 13  1  0  0  0  0 
 13 14  2  0  0  0  0 
 14 15  1  0  0  0  0 
 14 16  1  0  0  0  0 
 16 17  2  0  0  0  0 
 11 17  1  0  0  0  0 
 17 18  1  0  0  0  0 
M  CHG  1   1  -1
M  END
> <Mol Weight>
250.1976

> <Formula>
C13H8F2O3

> <CdId>
179

> <RCDK_LipinskiFailures>
0

> <source>
BYLER

> <name>
diflunisal

> <ABUNDANCE>
98.83% at pH 4.8

> <BLABBER_CHARGE>
-1

> <inchi>
1S/C13H8F2O3/c14-8-2-3-9(11(15)6-8)7-1-4-12(16)10(5-7)13(17)18/h1-6,16H,(H,17,18)

> <activity>
0

$$$$

  CDK     0331111707

 19 20  0  0  0  0  0  0  0  0999 V2000
    1.4289    0.8250    0.0000 O   0  0  0  0  0  1  0  0  0  0  0  0
    1.4289    0.0000    0.0000 C   0  0  0  0  0  4  0  0  0  0  0  0
    0.7145   -0.4125    0.0000 O   0  0  0  0  0  2  0  0  0  0  0  0
    2.1434   -0.4125    0.0000 C   0  0  0  0  0  4  0  0  0  0  0  0
    2.1434   -1.2375    0.0000 C   0  0  0  0  0  4  0  0  0  0  0  0
    1.4289   -1.6500    0.0000 C   0  0  0  0  0  4  0  0  0  0  0  0
    1.4289   -2.4750    0.0000 C   0  0  0  0  0  4  0  0  0  0  0  0
    2.1434   -2.8875    0.0000 C   0  0  0  0  0  4  0  0  0  0  0  0
    2.8579   -2.4750    0.0000 C   0  0  0  0  0  4  0  0  0  0  0  0
    2.8579   -1.6500    0.0000 C   0  0  0  0  0  4  0  0  0  0  0  0
    3.5724   -1.2375    0.0000 N   0  0  0  0  0  3  0  0  0  0  0  0
    4.2868   -1.6500    0.0000 C   0  0  0  0  0  4  0  0  0  0  0  0
    5.0013   -1.2375    0.0000 C   0  0  0  0  0  4  0  0  0  0  0  0
    5.0013   -0.4125    0.0000 Cl  0  0  0  0  0  1  0  0  0  0  0  0
    5.7158   -1.6500    0.0000 C   0  0  0  0  0  4  0  0  0  0  0  0
    5.7158   -2.4750    0.0000 C   0  0  0  0  0  4  0  0  0  0  0  0
    5.0013   -2.8875    0.0000 C   0  0  0  0  0  4  0  0  0  0  0  0
    4.2868   -2.4750    0.0000 C   0  0  0  0  0  4  0  0  0  0  0  0
    3.5724   -2.8875    0.0000 Cl  0  0  0  0  0  1  0  0  0  0  0  0
  1  2  1  0  0  0  0 
  2  3  2  0  0  0  0 
  2  4  1  0  0  0  0 
  4  5  1  0  0  0  0 
  5  6  2  0  0  0  0 
  6  7  1  0  0  0  0 
  7  8  2  0  0  0  0 
  8  9  1  0  0  0  0 
  9 10  2  0  0  0  0 
  5 10  1  0  0  0  0 
 10 11  1  0  0  0  0 
 11 12  1  0  0  0  0 
 12 13  2  0  0  0  0 
 13 14  1  0  0  0  0 
 13 15  1  0  0  0  0 
 15 16  2  0  0  0  0 
 16 17  1  0  0  0  0 
 17 18  2  0  0  0  0 
 12 18  1  0  0  0  0 
 18 19  1  0  0  0  0 
M  CHG  1   1  -1
M  END
> <Mol Weight>
296.149

> <Formula>
C14H11Cl2NO2

> <CdId>
178

> <RCDK_LipinskiFailures>
0

> <source>
BYLER

> <name>
diclofenac

> <ABUNDANCE>
80.16% at pH 4.8

> <BLABBER_CHARGE>
-1

> <inchi>
1S/C14H11Cl2NO2/c15-10-5-3-6-11(16)14(10)17-12-7-2-1-4-9(12)8-13(18)19/h1-7,17H,8H2,(H,18,19)

> <activity>
0

$$$$

  CDK     0331111707

 16 16  0  0  0  0  0  0  0  0999 V2000
    2.8579   -0.8250    0.0000 N   0  0  0  0  0  3  0  0  0  0  0  0
    2.1434   -0.4125    0.0000 S   0  0  0  0  0  6  0  0  0  0  0  0
    2.5559    0.3020    0.0000 O   0  0  0  0  0  2  0  0  0  0  0  0
    1.7309   -1.1270    0.0000 O   0  0  0  0  0  2  0  0  0  0  0  0
    1.4289   -0.0000    0.0000 C   0  0  0  0  0  4  0  0  0  0  0  0
    0.7145   -0.4125    0.0000 C   0  0  0  0  0  4  0  0  0  0  0  0
    0.0000   -0.0000    0.0000 C   0  0  0  0  0  4  0  0  0  0  0  0
    0.0000    0.8250    0.0000 C   0  0  0  0  0  4  0  0  0  0  0  0
    0.7145    1.2375    0.0000 C   0  0  0  0  0  4  0  0  0  0  0  0
    1.4289    0.8250    0.0000 C   0  0  0  0  0  4  0  0  0  0  0  0
    0.7145    2.0625    0.0000 S   0  0  0  0  0  6  0  0  0  0  0  0
    0.7145    2.8875    0.0000 N   0  0  0  0  0  3  0  0  0  0  0  0
    1.5395    2.0625    0.0000 O   0  0  0  0  0  2  0  0  0  0  0  0
   -0.1105    2.0625    0.0000 O   0  0  0  0  0  2  0  0  0  0  0  0
   -0.7145    1.2375    0.0000 Cl  0  0  0  0  0  1  0  0  0  0  0  0
   -0.7145   -0.4125    0.0000 Cl  0  0  0  0  0  1  0  0  0  0  0  0
  1  2  1  0  0  0  0 
  2  3  2  0  0  0  0 
  2  4  2  0  0  0  0 
  2  5  1  0  0  0  0 
  5  6  2  0  0  0  0 
  6  7  1  0  0  0  0 
  7  8  2  0  0  0  0 
  8  9  1  0  0  0  0 
  9 10  2  0  0  0  0 
  5 10  1  0  0  0  0 
  9 11  1  0  0  0  0 
 11 12  1  0  0  0  0 
 11 13  2  0  0  0  0 
 11 14  2  0  0  0  0 
  8 15  1  0  0  0  0 
  7 16  1  0  0  0  0 
M  END
> <Mol Weight>
305.159

> <Formula>
C6H6Cl2N2O4S2

> <CdId>
177

> <RCDK_LipinskiFailures>
0

> <source>
FDA

> <name>
Dichlorphenamide

> <ABUNDANCE>
99.82% at pH 4.8

> <BLABBER_CHARGE>


> <inchi>
1S/C6H6Cl2N2O4S2/c7-4-1-3(15(9,11)12)2-5(6(4)8)16(10,13)14/h1-2H,(H2,9,11,12)(H2,10,13,14)

> <activity>
0

$$$$

  CDK     0331111707

  7  6  0  0  0  0  0  0  0  0999 V2000
    0.1105   -1.2375    0.0000 O   0  0  0  0  0  2  0  0  0  0  0  0
    0.8250   -0.8250    0.0000 C   0  0  0  0  0  4  0  0  0  0  0  0
    1.5395   -1.2375    0.0000 O   0  0  0  0  0  2  0  0  0  0  0  0
    0.8250    0.0000    0.0000 C   0  0  0  0  0  4  0  0  0  0  0  0
    0.8250    0.8250    0.0000 Cl  0  0  0  0  0  1  0  0  0  0  0  0
    1.6500   -0.0000    0.0000 Cl  0  0  0  0  0  1  0  0  0  0  0  0
    0.0000    0.0000    0.0000 Cl  0  0  0  0  0  1  0  0  0  0  0  0
  1  2  1  0  0  0  0 
  2  3  1  0  0  0  0 
  2  4  1  0  0  0  0 
  4  5  1  0  0  0  0 
  4  6  1  0  0  0  0 
  4  7  1  0  0  0  0 
M  END
> <Mol Weight>
165.403

> <Formula>
C2H3Cl3O2

> <CdId>
176

> <RCDK_LipinskiFailures>
0

> <source>
FDA

> <name>
Dichloralphenazone

> <ABUNDANCE>
100% at pH 4.8

> <BLABBER_CHARGE>


> <inchi>
1S/C2H3Cl3O2/c3-2(4,5)1(6)7/h1,6-7H

> <activity>
0

$$$$

  CDK     0331111707

 12 11  0  0  0  0  0  0  0  0999 V2000
    2.4750    0.6039    0.0000 O   0  0  0  0  0  2  0  0  0  0  0  0
    2.4750    1.4289    0.0000 C   0  0  0  0  0  4  0  0  0  0  0  0
    1.7605    1.8414    0.0000 C   0  0  0  0  0  4  0  0  0  0  0  0
    1.0461    1.4289    0.0000 Br  0  0  0  0  0  1  0  0  0  0  0  0
    3.1895    1.8414    0.0000 C   0  0  0  0  0  4  0  0  0  0  0  0
    3.1895    2.6664    0.0000 O   0  0  0  0  0  2  0  0  0  0  0  0
    3.9039    1.4289    0.0000 C   0  0  0  0  0  4  0  0  0  0  0  0
    3.9039    0.6039    0.0000 O   0  0  0  0  0  2  0  0  0  0  0  0
    4.6184    1.8414    0.0000 C   0  0  0  0  0  4  0  0  0  0  0  0
    4.6184    2.6664    0.0000 O   0  0  0  0  0  2  0  0  0  0  0  0
    5.3329    1.4289    0.0000 C   0  0  0  0  0  4  0  0  0  0  0  0
    6.0474    1.8414    0.0000 Br  0  0  0  0  0  1  0  0  0  0  0  0
  1  2  1  0  0  0  0 
  2  3  1  0  0  0  0 
  3  4  1  0  0  0  0 
  2  5  1  0  0  0  0 
  5  6  1  0  0  0  0 
  5  7  1  0  0  0  0 
  7  8  1  0  0  0  0 
  7  9  1  0  0  0  0 
  9 10  1  0  0  0  0 
  9 11  1  0  0  0  0 
 11 12  1  0  0  0  0 
M  END
> <Mol Weight>
307.965

> <Formula>
C6H12Br2O4

> <CdId>
174

> <RCDK_LipinskiFailures>
0

> <source>
FDA

> <name>
Dibromomannitol

> <ABUNDANCE>
100% at pH 4.8

> <BLABBER_CHARGE>


> <inchi>
1S/C6H12Br2O4/c7-1-3(9)5(11)6(12)4(10)2-8/h3-6,9-12H,1-2H2

> <activity>
0

$$$$

  CDK     0331111707

 20 22  0  0  0  0  0  0  0  0999 V2000
    3.4479    1.4620    0.0000 C   0  0  0  0  0  4  0  0  0  0  0  0
    3.6315    0.6577    0.0000 N   0  0  0  0  0  3  0  0  0  0  0  0
    4.4358    0.4742    0.0000 C   0  0  0  0  0  4  0  0  0  0  0  0
    4.9502    1.1192    0.0000 O   0  0  0  0  0  2  0  0  0  0  0  0
    4.7938   -0.2691    0.0000 C   0  0  0  0  0  4  0  0  0  0  0  0
    4.4358   -1.0124    0.0000 N   0  0  0  0  0  3  0  0  0  0  0  0
    3.6315   -1.1960    0.0000 C   0  0  0  0  0  4  0  0  0  0  0  0
    3.4479   -2.0003    0.0000 C   0  0  0  0  0  4  0  0  0  0  0  0
    4.0527   -2.5615    0.0000 C   0  0  0  0  0  4  0  0  0  0  0  0
    3.8691   -3.3658    0.0000 C   0  0  0  0  0  4  0  0  0  0  0  0
    3.0808   -3.6090    0.0000 C   0  0  0  0  0  4  0  0  0  0  0  0
    2.4760   -3.0478    0.0000 C   0  0  0  0  0  4  0  0  0  0  0  0
    2.6596   -2.2435    0.0000 C   0  0  0  0  0  4  0  0  0  0  0  0
    2.9865   -0.6816    0.0000 C   0  0  0  0  0  4  0  0  0  0  0  0
    2.2720   -1.0941    0.0000 C   0  0  0  0  0  4  0  0  0  0  0  0
    1.5575   -0.6816    0.0000 C   0  0  0  0  0  4  0  0  0  0  0  0
    1.5575    0.1434    0.0000 C   0  0  0  0  0  4  0  0  0  0  0  0
    2.2720    0.5559    0.0000 C   0  0  0  0  0  4  0  0  0  0  0  0
    2.9865    0.1434    0.0000 C   0  0  0  0  0  4  0  0  0  0  0  0
    0.8431   -1.0941    0.0000 Cl  0  0  0  0  0  1  0  0  0  0  0  0
  1  2  1  0  0  0  0 
  2  3  1  0  0  0  0 
  3  4  2  0  0  0  0 
  3  5  1  0  0  0  0 
  5  6  1  0  0  0  0 
  6  7  2  0  0  0  0 
  7  8  1  0  0  0  0 
  8  9  2  0  0  0  0 
  9 10  1  0  0  0  0 
 10 11  2  0  0  0  0 
 11 12  1  0  0  0  0 
 12 13  2  0  0  0  0 
  8 13  1  0  0  0  0 
  7 14  1  0  0  0  0 
 14 15  2  0  0  0  0 
 15 16  1  0  0  0  0 
 16 17  2  0  0  0  0 
 17 18  1  0  0  0  0 
 18 19  2  0  0  0  0 
 14 19  1  0  0  0  0 
  2 19  1  0  0  0  0 
 16 20  1  0  0  0  0 
M  END
> <Mol Weight>
284.74

> <Formula>
C16H13ClN2O

> <CdId>
172

> <RCDK_LipinskiFailures>
0

> <source>
FDA

> <name>
Diazepam

> <ABUNDANCE>
99.13% at pH 4.8

> <BLABBER_CHARGE>


> <inchi>
1S/C16H13ClN2O/c1-19-14-8-7-12(17)9-13(14)16(18-10-15(19)20)11-5-3-2-4-6-11/h2-9H,10H2,1H3

> <activity>
0

$$$$

  CDK     0331111707

 27 30  0  0  0  0  0  0  0  0999 V2000
   -0.0853   -4.2178    0.0000 C   0  0  0  0  0  4  0  0  0  0  0  0
    0.4211   -3.5665    0.0000 C   0  0  0  0  0  4  0  0  0  0  0  0
    0.1102   -2.8023    0.0000 O   0  0  0  0  0  2  0  0  0  0  0  0
    1.2383   -3.6793    0.0000 O   0  0  0  0  0  2  0  0  0  0  0  0
    1.7447   -3.0280    0.0000 C   0  0  0  0  0  4  0  0  0  0  0  0
    2.5619   -3.1408    0.0000 C   0  0  0  0  0  4  0  0  0  0  0  0
    2.8728   -3.9050    0.0000 O   0  0  0  0  0  2  0  0  0  0  0  0
    3.0683   -2.4895    0.0000 C   0  0  0  0  0  4  0  0  0  0  0  0
    2.8390   -1.6970    0.0000 C   0  0  0  0  0  4  0  0  0  0  0  0
    3.5218   -1.2340    0.0000 C   0  0  0  0  0  4  0  0  0  0  0  0
    4.1731   -1.7404    0.0000 C   0  0  0  0  0  4  0  0  0  0  0  0
    4.9853   -1.5952    0.0000 C   0  0  0  0  0  4  0  0  0  0  0  0
    5.2655   -0.8192    0.0000 C   0  0  0  0  0  4  0  0  0  0  0  0
    6.0777   -0.6740    0.0000 C   0  0  0  0  0  4  0  0  0  0  0  0
    6.6095   -1.3047    0.0000 C   0  0  0  0  0  4  0  0  0  0  0  0
    7.4216   -1.1595    0.0000 C   0  0  0  0  0  4  0  0  0  0  0  0
    7.9534   -1.7902    0.0000 C   0  0  0  0  0  4  0  0  0  0  0  0
    8.7655   -1.6450    0.0000 O   0  0  0  0  0  2  0  0  0  0  0  0
    7.6731   -2.5662    0.0000 C   0  0  0  0  0  4  0  0  0  0  0  0
    6.8610   -2.7114    0.0000 C   0  0  0  0  0  4  0  0  0  0  0  0
    6.3292   -2.0807    0.0000 C   0  0  0  0  0  4  0  0  0  0  0  0
    6.0489   -2.8566    0.0000 C   0  0  0  0  0  4  0  0  0  0  0  0
    5.5171   -2.2259    0.0000 C   0  0  0  0  0  4  0  0  0  0  0  0
    5.2368   -3.0018    0.0000 C   0  0  0  0  0  4  0  0  0  0  0  0
    4.4247   -3.1470    0.0000 C   0  0  0  0  0  4  0  0  0  0  0  0
    3.8928   -2.5163    0.0000 C   0  0  0  0  0  4  0  0  0  0  0  0
    3.5330   -3.2587    0.0000 C   0  0  0  0  0  4  0  0  0  0  0  0
  1  2  1  0  0  0  0 
  2  3  2  0  0  0  0 
  2  4  1  0  0  0  0 
  4  5  1  0  0  0  0 
  5  6  1  0  0  0  0 
  6  7  2  0  0  0  0 
  6  8  1  0  0  0  0 
  8  9  1  0  0  0  0 
  9 10  1  0  0  0  0 
 10 11  1  0  0  0  0 
 11 12  1  0  0  0  0 
 12 13  1  0  0  0  0 
 13 14  1  0  0  0  0 
 14 15  1  0  0  0  0 
 15 16  2  0  0  0  0 
 16 17  1  0  0  0  0 
 17 18  2  0  0  0  0 
 17 19  1  0  0  0  0 
 19 20  1  0  0  0  0 
 20 21  1  0  0  0  0 
 15 21  1  0  0  0  0 
 21 22  1  0  0  0  0 
 21 23  1  0  0  0  0 
 12 23  1  0  0  0  0 
 23 24  1  0  0  0  0 
 24 25  1  0  0  0  0 
 25 26  1  0  0  0  0 
  8 26  1  0  0  0  0 
 11 26  1  0  0  0  0 
 26 27  1  0  0  0  0 
M  END
> <Mol Weight>
372.4978

> <Formula>
C23H32O4

> <CdId>
168

> <RCDK_LipinskiFailures>
0

> <source>
FDA

> <name>
Deoxycorticosterone acetate

> <ABUNDANCE>
No species found

> <BLABBER_CHARGE>


> <inchi>
1S/C23H32O4/c1-14(24)27-13-21(26)20-7-6-18-17-5-4-15-12-16(25)8-10-22(15,2)19(17)9-11-23(18,20)3/h12,17-20H,4-11,13H2,1-3H3

> <activity>
0

$$$$

  CDK     0331111707

 32 35  0  0  0  0  0  0  0  0999 V2000
    2.1434   -1.2375    0.0000 C   0  0  0  0  0  4  0  0  0  0  0  0
    2.8579   -1.6500    0.0000 N   0  0  0  0  0  4  0  0  0  0  0  0
    3.5724   -1.2375    0.0000 C   0  0  0  0  0  4  0  0  0  0  0  0
    2.8579   -2.4750    0.0000 C   0  0  0  0  0  4  0  0  0  0  0  0
    3.5724   -2.8875    0.0000 C   0  0  0  0  0  4  0  0  0  0  0  0
    4.2868   -2.4750    0.0000 C   0  0  0  0  0  4  0  0  0  0  0  0
    5.0013   -2.8875    0.0000 C   0  0  0  0  0  4  0  0  0  0  0  0
    5.7158   -2.4750    0.0000 C   0  0  0  0  0  4  0  0  0  0  0  0
    5.7158   -1.6500    0.0000 O   0  0  0  0  0  2  0  0  0  0  0  0
    6.4302   -2.8875    0.0000 C   0  0  0  0  0  4  0  0  0  0  0  0
    7.1447   -2.4750    0.0000 C   0  0  0  0  0  4  0  0  0  0  0  0
    7.1447   -1.6500    0.0000 Cl  0  0  0  0  0  1  0  0  0  0  0  0
    7.8592   -2.8875    0.0000 C   0  0  0  0  0  4  0  0  0  0  0  0
    7.8592   -3.7125    0.0000 C   0  0  0  0  0  4  0  0  0  0  0  0
    7.1447   -4.1250    0.0000 C   0  0  0  0  0  4  0  0  0  0  0  0
    7.1447   -4.9500    0.0000 O   0  0  0  0  0  2  0  0  0  0  0  0
    6.4302   -3.7125    0.0000 C   0  0  0  0  0  4  0  0  0  0  0  0
    5.7158   -4.1250    0.0000 C   0  0  0  0  0  4  0  0  0  0  0  0
    5.0013   -3.7125    0.0000 C   0  0  0  0  0  4  0  0  0  0  0  0
    4.2868   -4.1250    0.0000 C   0  0  0  0  0  4  0  0  0  0  0  0
    4.2868   -4.9500    0.0000 O   0  0  0  0  0  2  0  0  0  0  0  0
    3.5724   -3.7125    0.0000 C   0  0  0  0  0  4  0  0  0  0  0  0
    3.5724   -4.5375    0.0000 O   0  0  0  0  0  2  0  0  0  0  0  0
    2.8579   -4.1250    0.0000 C   0  0  0  0  0  4  0  0  0  0  0  0
    2.8579   -4.9500    0.0000 O   0  0  0  0  0  2  0  0  0  0  0  0
    2.1434   -3.7125    0.0000 C   0  0  0  0  0  4  0  0  0  0  0  0
    1.4289   -4.1250    0.0000 C   0  0  0  0  0  4  0  0  0  0  0  0
    1.4289   -4.9500    0.0000 N   0  0  0  0  0  4  0  0  0  0  0  0
    0.7145   -3.7125    0.0000 O   0  0  0  0  0  1  0  0  0  0  0  0
    2.1434   -2.8875    0.0000 C   0  0  0  0  0  4  0  0  0  0  0  0
    1.4289   -2.4750    0.0000 O   0  0  0  0  0  2  0  0  0  0  0  0
    5.7158   -4.9500    0.0000 O   0  0  0  0  0  2  0  0  0  0  0  0
  1  2  1  0  0  0  0 
  2  3  1  0  0  0  0 
  2  4  1  0  0  0  0 
  4  5  1  0  0  0  0 
  5  6  1  0  0  0  0 
  6  7  1  0  0  0  0 
  7  8  1  0  0  0  0 
  8  9  1  0  0  0  0 
  8 10  1  0  0  0  0 
 10 11  2  0  0  0  0 
 11 12  1  0  0  0  0 
 11 13  1  0  0  0  0 
 13 14  2  0  0  0  0 
 14 15  1  0  0  0  0 
 15 16  1  0  0  0  0 
 15 17  2  0  0  0  0 
 10 17  1  0  0  0  0 
 17 18  1  0  0  0  0 
 18 19  2  0  0  0  0 
  7 19  1  0  0  0  0 
 19 20  1  0  0  0  0 
 20 21  2  0  0  0  0 
 20 22  1  0  0  0  0 
  5 22  1  0  0  0  0 
 22 23  1  0  0  0  0 
 22 24  1  0  0  0  0 
 24 25  2  0  0  0  0 
 24 26  1  0  0  0  0 
 26 27  2  0  0  0  0 
 27 28  1  4  0  0  0 
 27 29  1  0  0  0  0 
 26 30  1  0  0  0  0 
  4 30  1  0  0  0  0 
 30 31  2  0  0  0  0 
 18 32  1  0  0  0  0 
M  CHG  1   2   1
M  CHG  1  28   1
M  CHG  1  29  -1
M  END
> <Mol Weight>
464.853

> <Formula>
C21H21ClN2O8

> <CdId>
167

> <RCDK_LipinskiFailures>
0

> <source>
BYLER

> <name>
demeclocycline

> <ABUNDANCE>
71.73% at pH 4.8

> <BLABBER_CHARGE>
1

> <CHECK TAUTOMER>
Multiple tautomers in input structure. Results could be inaccurate.

> <inchi>
1S/C21H21ClN2O8/c1-24(2)14-7-5-6-10(16(27)12-9(25)4-3-8(22)11(12)15(6)26)18(29)21(7,32)19(30)13(17(14)28)20(23)31/h3-4,6-7,14-15,25-27,31-32H,5,23H2,1-2H3/b20-13+

> <activity>
0

$$$$

  CDK     0331111707

 32 35  0  0  0  0  0  0  0  0999 V2000
    0.6538   -4.9848    0.0000 C   0  0  0  0  0  4  0  0  0  0  0  0
   -0.1712   -4.9848    0.0000 C   0  0  0  0  0  4  0  0  0  0  0  0
   -0.5837   -5.6992    0.0000 C   0  0  0  0  0  4  0  0  0  0  0  0
   -0.5837   -4.2703    0.0000 N   0  0  0  0  0  3  0  0  0  0  0  0
   -1.4087   -4.2703    0.0000 C   0  0  0  0  0  4  0  0  0  0  0  0
   -1.8212   -4.9848    0.0000 C   0  0  0  0  0  4  0  0  0  0  0  0
   -2.6462   -4.9848    0.0000 C   0  0  0  0  0  4  0  0  0  0  0  0
   -3.0587   -4.2703    0.0000 C   0  0  0  0  0  4  0  0  0  0  0  0
   -2.6462   -3.5558    0.0000 N   0  0  0  0  0  4  0  0  0  0  0  0
   -1.8212   -3.5558    0.0000 C   0  0  0  0  0  4  0  0  0  0  0  0
   -1.4087   -2.8414    0.0000 N   0  0  0  0  0  3  0  0  0  0  0  0
   -1.8212   -2.1269    0.0000 C   0  0  0  0  0  4  0  0  0  0  0  0
   -1.4087   -1.4124    0.0000 C   0  0  0  0  0  4  0  0  0  0  0  0
   -0.5837   -1.4124    0.0000 N   0  0  0  0  0  3  0  0  0  0  0  0
   -0.1712   -2.1269    0.0000 C   0  0  0  0  0  4  0  0  0  0  0  0
   -0.5837   -2.8414    0.0000 C   0  0  0  0  0  4  0  0  0  0  0  0
   -0.1712   -0.6979    0.0000 C   0  0  0  0  0  4  0  0  0  0  0  0
   -0.5837    0.0165    0.0000 O   0  0  0  0  0  2  0  0  0  0  0  0
    0.6538   -0.6979    0.0000 C   0  0  0  0  0  4  0  0  0  0  0  0
    1.1387   -0.0305    0.0000 C   0  0  0  0  0  4  0  0  0  0  0  0
    1.9233   -0.2854    0.0000 C   0  0  0  0  0  4  0  0  0  0  0  0
    2.6378    0.1271    0.0000 C   0  0  0  0  0  4  0  0  0  0  0  0
    3.3523   -0.2854    0.0000 C   0  0  0  0  0  4  0  0  0  0  0  0
    3.3523   -1.1104    0.0000 C   0  0  0  0  0  4  0  0  0  0  0  0
    2.6378   -1.5229    0.0000 C   0  0  0  0  0  4  0  0  0  0  0  0
    1.9233   -1.1104    0.0000 C   0  0  0  0  0  4  0  0  0  0  0  0
    1.1387   -1.3654    0.0000 N   0  0  0  0  0  3  0  0  0  0  0  0
    4.0668    0.1271    0.0000 N   0  0  0  0  0  3  0  0  0  0  0  0
    4.0668    0.9521    0.0000 S   0  0  0  0  0  6  0  0  0  0  0  0
    4.0668    1.7771    0.0000 C   0  0  0  0  0  4  0  0  0  0  0  0
    4.8918    0.9521    0.0000 O   0  0  0  0  0  2  0  0  0  0  0  0
    3.2418    0.9521    0.0000 O   0  0  0  0  0  2  0  0  0  0  0  0
  1  2  1  0  0  0  0 
  2  3  1  0  0  0  0 
  2  4  1  0  0  0  0 
  4  5  1  0  0  0  0 
  5  6  2  0  0  0  0 
  6  7  1  0  0  0  0 
  7  8  2  0  0  0  0 
  8  9  1  0  0  0  0 
  9 10  2  0  0  0  0 
  5 10  1  0  0  0  0 
 10 11  1  0  0  0  0 
 11 12  1  0  0  0  0 
 12 13  1  0  0  0  0 
 13 14  1  0  0  0  0 
 14 15  1  0  0  0  0 
 15 16  1  0  0  0  0 
 11 16  1  0  0  0  0 
 14 17  1  0  0  0  0 
 17 18  2  0  0  0  0 
 17 19  1  0  0  0  0 
 19 20  2  0  0  0  0 
 20 21  1  0  0  0  0 
 21 22  2  0  0  0  0 
 22 23  1  0  0  0  0 
 23 24  2  0  0  0  0 
 24 25  1  0  0  0  0 
 25 26  2  0  0  0  0 
 21 26  1  0  0  0  0 
 26 27  1  0  0  0  0 
 19 27  1  0  0  0  0 
 23 28  1  0  0  0  0 
 28 29  1  0  0  0  0 
 29 30  1  0  0  0  0 
 29 31  2  0  0  0  0 
 29 32  2  0  0  0  0 
M  CHG  1   9   1
M  END
> <Mol Weight>
456.561

> <Formula>
C22H28N6O3S

> <CdId>
166

> <RCDK_LipinskiFailures>
0

> <source>
FDA

> <name>
Delavirdine

> <ABUNDANCE>
98.34% at pH 4.8

> <BLABBER_CHARGE>
1

> <inchi>
1S/C22H28N6O3S/c1-15(2)24-19-5-4-8-23-21(19)27-9-11-28(12-10-27)22(29)20-14-16-13-17(26-32(3,30)31)6-7-18(16)25-20/h4-8,13-15,24-26H,9-12H2,1-3H3

> <activity>
0

$$$$

  CDK     0331111707

 24 27  0  0  0  0  0  0  0  0999 V2000
    0.1412    0.3866    0.0000 C   0  0  0  0  0  4  0  0  0  0  0  0
    0.9533    0.2414    0.0000 C   0  0  0  0  0  4  0  0  0  0  0  0
    1.4852    0.8721    0.0000 O   0  0  0  0  0  2  0  0  0  0  0  0
    1.2336   -0.5346    0.0000 O   0  0  0  0  0  2  0  0  0  0  0  0
    2.0458   -0.6798    0.0000 C   0  0  0  0  0  4  0  0  0  0  0  0
    2.3261   -1.4557    0.0000 C   0  0  0  0  0  4  0  0  0  0  0  0
    3.1382   -1.6009    0.0000 C   0  0  0  0  0  4  0  0  0  0  0  0
    3.6700   -0.9702    0.0000 C   0  0  0  0  0  4  0  0  0  0  0  0
    3.9503   -1.7461    0.0000 C   0  0  0  0  0  4  0  0  0  0  0  0
    3.3897   -0.1943    0.0000 C   0  0  0  0  0  4  0  0  0  0  0  0
    3.9215    0.4364    0.0000 C   0  0  0  0  0  4  0  0  0  0  0  0
    4.7336    0.2912    0.0000 C   0  0  0  0  0  4  0  0  0  0  0  0
    5.0139   -0.4847    0.0000 C   0  0  0  0  0  4  0  0  0  0  0  0
    5.8261   -0.6299    0.0000 C   0  0  0  0  0  4  0  0  0  0  0  0
    6.4774   -0.1236    0.0000 C   0  0  0  0  0  4  0  0  0  0  0  0
    7.1602   -0.5866    0.0000 C   0  0  0  0  0  4  0  0  0  0  0  0
    6.9309   -1.3791    0.0000 C   0  0  0  0  0  4  0  0  0  0  0  0
    7.4373   -2.0304    0.0000 O   0  0  0  0  0  2  0  0  0  0  0  0
    6.1064   -1.4059    0.0000 C   0  0  0  0  0  4  0  0  0  0  0  0
    6.4662   -2.1482    0.0000 C   0  0  0  0  0  4  0  0  0  0  0  0
    5.5745   -2.0366    0.0000 C   0  0  0  0  0  4  0  0  0  0  0  0
    4.7624   -1.8914    0.0000 C   0  0  0  0  0  4  0  0  0  0  0  0
    4.4821   -1.1154    0.0000 C   0  0  0  0  0  4  0  0  0  0  0  0
    2.5776   -0.0491    0.0000 C   0  0  0  0  0  4  0  0  0  0  0  0
  1  2  1  0  0  0  0 
  2  3  2  0  0  0  0 
  2  4  1  0  0  0  0 
  4  5  1  0  0  0  0 
  5  6  1  0  0  0  0 
  6  7  1  0  0  0  0 
  7  8  1  0  0  0  0 
  8  9  1  0  0  0  0 
  8 10  1  0  0  0  0 
 10 11  2  0  0  0  0 
 11 12  1  0  0  0  0 
 12 13  1  0  0  0  0 
 13 14  1  0  0  0  0 
 14 15  1  0  0  0  0 
 15 16  1  0  0  0  0 
 16 17  1  0  0  0  0 
 17 18  2  0  0  0  0 
 17 19  1  0  0  0  0 
 14 19  1  0  0  0  0 
 19 20  1  0  0  0  0 
 19 21  1  0  0  0  0 
 21 22  1  0  0  0  0 
 22 23  1  0  0  0  0 
 13 23  1  0  0  0  0 
  8 23  1  0  0  0  0 
 10 24  1  0  0  0  0 
  5 24  1  0  0  0  0 
M  END
> <Mol Weight>
330.4611

> <Formula>
C21H30O3

> <CdId>
165

> <RCDK_LipinskiFailures>
0

> <source>
FDA

> <name>
Dehydroepiandrosterone acetate

> <ABUNDANCE>
No species found

> <BLABBER_CHARGE>


> <inchi>
1S/C21H30O3/c1-13(22)24-15-8-10-20(2)14(12-15)4-5-16-17-6-7-19(23)21(17,3)11-9-18(16)20/h4,15-18H,5-12H2,1-3H3

> <activity>
0

$$$$

  CDK     0331111707

 17 16  0  0  0  0  0  0  0  0999 V2000
    5.4730   -3.1599    0.0000 C   0  0  0  0  0  4  0  0  0  0  0  0
    6.1875   -3.5724    0.0000 N   0  0  0  0  0  4  0  0  0  0  0  0
    5.7750   -4.2868    0.0000 C   0  0  0  0  0  4  0  0  0  0  0  0
    6.6000   -2.8579    0.0000 C   0  0  0  0  0  4  0  0  0  0  0  0
    6.9020   -3.9849    0.0000 C   0  0  0  0  0  4  0  0  0  0  0  0
    7.6164   -3.5724    0.0000 C   0  0  0  0  0  4  0  0  0  0  0  0
    8.3309   -3.9849    0.0000 C   0  0  0  0  0  4  0  0  0  0  0  0
    9.0454   -3.5724    0.0000 C   0  0  0  0  0  4  0  0  0  0  0  0
    9.7599   -3.9849    0.0000 C   0  0  0  0  0  4  0  0  0  0  0  0
   10.4743   -3.5724    0.0000 C   0  0  0  0  0  4  0  0  0  0  0  0
   11.1888   -3.9849    0.0000 C   0  0  0  0  0  4  0  0  0  0  0  0
   11.9033   -3.5724    0.0000 C   0  0  0  0  0  4  0  0  0  0  0  0
   12.6177   -3.9849    0.0000 C   0  0  0  0  0  4  0  0  0  0  0  0
   13.3322   -3.5724    0.0000 N   0  0  0  0  0  4  0  0  0  0  0  0
   14.0467   -3.1599    0.0000 C   0  0  0  0  0  4  0  0  0  0  0  0
   13.7447   -4.2868    0.0000 C   0  0  0  0  0  4  0  0  0  0  0  0
   12.9197   -2.8579    0.0000 C   0  0  0  0  0  4  0  0  0  0  0  0
  1  2  1  0  0  0  0 
  2  3  1  0  0  0  0 
  2  4  1  0  0  0  0 
  2  5  1  0  0  0  0 
  5  6  1  0  0  0  0 
  6  7  1  0  0  0  0 
  7  8  1  0  0  0  0 
  8  9  1  0  0  0  0 
  9 10  1  0  0  0  0 
 10 11  1  0  0  0  0 
 11 12  1  0  0  0  0 
 12 13  1  0  0  0  0 
 13 14  1  0  0  0  0 
 14 15  1  0  0  0  0 
 14 16  1  0  0  0  0 
 14 17  1  0  0  0  0 
M  CHG  1   2   1
M  CHG  1  14   1
M  END
> <Mol Weight>
244.4597

> <Formula>
C15H36N2

> <CdId>
164

> <RCDK_LipinskiFailures>
0

> <source>
FDA

> <name>
Decamethonium bromide

> <ABUNDANCE>
No species found

> <BLABBER_CHARGE>
2

> <inchi>
1S/C15H36N2/c1-16(2,3)14-12-10-8-7-9-11-13-15-17(4,5)6/h7-15H2,1-6H3/q+2

> <activity>
0

$$$$

  CDK     0331111707

 13 14  0  0  0  0  0  0  0  0999 V2000
    0.0000   -2.4750    0.0000 N   0  0  0  0  0  4  0  0  0  0  0  0
    0.0000   -1.6500    0.0000 C   0  0  0  0  0  4  0  0  0  0  0  0
   -0.7145   -1.2375    0.0000 N   0  0  0  0  0  3  0  0  0  0  0  0
    0.7145   -1.2375    0.0000 N   0  0  0  0  0  3  0  0  0  0  0  0
    0.7145   -0.4125    0.0000 C   0  0  0  0  0  4  0  0  0  0  0  0
    1.4289    0.0000    0.0000 C   0  0  0  0  0  4  0  0  0  0  0  0
    2.1434   -0.4125    0.0000 C   0  0  0  0  0  4  0  0  0  0  0  0
    2.8579    0.0000    0.0000 C   0  0  0  0  0  4  0  0  0  0  0  0
    3.5724   -0.4125    0.0000 C   0  0  0  0  0  4  0  0  0  0  0  0
    3.5724   -1.2375    0.0000 C   0  0  0  0  0  4  0  0  0  0  0  0
    2.8579   -1.6500    0.0000 C   0  0  0  0  0  4  0  0  0  0  0  0
    2.1434   -1.2375    0.0000 C   0  0  0  0  0  4  0  0  0  0  0  0
    1.4289   -1.6500    0.0000 C   0  0  0  0  0  4  0  0  0  0  0  0
  1  2  2  0  0  0  0 
  2  3  1  0  0  0  0 
  2  4  1  0  0  0  0 
  4  5  1  0  0  0  0 
  5  6  1  0  0  0  0 
  6  7  1  0  0  0  0 
  7  8  2  0  0  0  0 
  8  9  1  0  0  0  0 
  9 10  2  0  0  0  0 
 10 11  1  0  0  0  0 
 11 12  2  0  0  0  0 
  7 12  1  0  0  0  0 
 12 13  1  0  0  0  0 
  4 13  1  0  0  0  0 
M  CHG  1   1   1
M  END
> <Mol Weight>
175.2303

> <Formula>
C10H13N3

> <CdId>
163

> <RCDK_LipinskiFailures>
0

> <source>
FDA

> <name>
Debrisoquin

> <ABUNDANCE>
100% at pH 4.8

> <BLABBER_CHARGE>
1

> <CHECK TAUTOMER>
Multiple tautomers in input structure. Results could be inaccurate.

> <inchi>
1S/C10H13N3/c11-10(12)13-6-5-8-3-1-2-4-9(8)7-13/h1-4H,5-7H2,(H3,11,12)

> <activity>
0

$$$$

  CDK     0331111707

  6  5  0  0  0  0  0  0  0  0999 V2000
    2.4750   -1.4289    0.0000 C   0  0  0  0  0  4  0  0  0  0  0  0
    2.0625   -0.7145    0.0000 N   0  0  0  0  0  4  0  0  0  0  0  0
    2.4750   -0.0000    0.0000 C   0  0  0  0  0  4  0  0  0  0  0  0
    1.2375   -0.7145    0.0000 C   0  0  0  0  0  4  0  0  0  0  0  0
    0.8250    0.0000    0.0000 C   0  0  0  0  0  4  0  0  0  0  0  0
    0.0000    0.0000    0.0000 O   0  0  0  0  0  2  0  0  0  0  0  0
  1  2  1  0  0  0  0 
  2  3  1  0  0  0  0 
  2  4  1  0  0  0  0 
  4  5  1  0  0  0  0 
  5  6  1  0  0  0  0 
M  CHG  1   2   1
M  END
> <Mol Weight>
89.1362

> <Formula>
C4H11NO

> <CdId>
162

> <RCDK_LipinskiFailures>
0

> <source>
FDA

> <name>
Deanol

> <ABUNDANCE>
100% at pH 4.8

> <BLABBER_CHARGE>
1

> <inchi>
1S/C4H11NO/c1-5(2)3-4-6/h6H,3-4H2,1-2H3

> <activity>
0

$$$$

  CDK     0331111707

 23 25  0  0  0  0  0  0  0  0999 V2000
   -0.0000    7.1786    0.0000 O   0  0  0  0  0  1  0  0  0  0  0  0
    0.7145    6.7661    0.0000 N   0  0  0  0  0  4  0  0  0  0  0  0
    1.4289    7.1786    0.0000 O   0  0  0  0  0  2  0  0  0  0  0  0
    0.7145    5.9411    0.0000 C   0  0  0  0  0  4  0  0  0  0  0  0
    1.4289    5.5286    0.0000 C   0  0  0  0  0  4  0  0  0  0  0  0
    1.4289    4.7036    0.0000 C   0  0  0  0  0  4  0  0  0  0  0  0
    0.7145    4.2911    0.0000 C   0  0  0  0  0  4  0  0  0  0  0  0
    0.0000    4.7036    0.0000 C   0  0  0  0  0  4  0  0  0  0  0  0
   -0.0000    5.5286    0.0000 C   0  0  0  0  0  4  0  0  0  0  0  0
    0.7145    3.4661    0.0000 C   0  0  0  0  0  4  0  0  0  0  0  0
    1.3819    2.9812    0.0000 O   0  0  0  0  0  2  0  0  0  0  0  0
    1.1270    2.1965    0.0000 C   0  0  0  0  0  4  0  0  0  0  0  0
    1.6119    1.5291    0.0000 C   0  0  0  0  0  4  0  0  0  0  0  0
    2.4324    1.6153    0.0000 N   0  0  0  0  0  3  0  0  0  0  0  0
    2.9173    0.9479    0.0000 N   0  0  0  0  0  3  0  0  0  0  0  0
    3.7423    0.9479    0.0000 C   0  0  0  0  0  4  0  0  0  0  0  0
    3.9972    0.1633    0.0000 C   0  0  0  0  0  4  0  0  0  0  0  0
    4.7819   -0.0917    0.0000 O   0  0  0  0  0  2  0  0  0  0  0  0
    3.3298   -0.3217    0.0000 N   0  0  0  0  0  3  0  0  0  0  0  0
    2.6624    0.1633    0.0000 C   0  0  0  0  0  4  0  0  0  0  0  0
    1.8777   -0.0917    0.0000 O   0  0  0  0  0  2  0  0  0  0  0  0
    0.3020    2.1965    0.0000 C   0  0  0  0  0  4  0  0  0  0  0  0
    0.0470    2.9812    0.0000 C   0  0  0  0  0  4  0  0  0  0  0  0
  1  2  1  0  0  0  0 
  2  3  2  0  0  0  0 
  2  4  1  0  0  0  0 
  4  5  2  0  0  0  0 
  5  6  1  0  0  0  0 
  6  7  2  0  0  0  0 
  7  8  1  0  0  0  0 
  8  9  2  0  0  0  0 
  4  9  1  0  0  0  0 
  7 10  1  0  0  0  0 
 10 11  1  0  0  0  0 
 11 12  1  0  0  0  0 
 13 12  1  4  0  0  0 
 13 14  2  0  0  0  0 
 14 15  1  0  0  0  0 
 15 16  1  0  0  0  0 
 16 17  1  0  0  0  0 
 17 18  2  0  0  0  0 
 17 19  1  0  0  0  0 
 19 20  1  0  0  0  0 
 15 20  1  0  0  0  0 
 20 21  2  0  0  0  0 
 12 22  2  0  0  0  0 
 22 23  1  0  0  0  0 
 10 23  2  0  0  0  0 
M  CHG  1   1  -1
M  CHG  1   2   1
M  END
> <Mol Weight>
314.253

> <Formula>
C14H10N4O5

> <CdId>
161

> <RCDK_LipinskiFailures>
0

> <source>
BYLER

> <name>
dantrolene

> <ABUNDANCE>
99.7% at pH 4.8

> <BLABBER_CHARGE>
0

> <inchi>
1S/C14H10N4O5/c19-13-8-17(14(20)16-13)15-7-11-5-6-12(23-11)9-1-3-10(4-2-9)18(21)22/h1-7H,8H2,(H,16,19,20)/b15-7+

> <activity>
0

$$$$

  CDK     0331111707

 13 13  0  0  0  0  0  0  0  0999 V2000
    4.0306    0.0352    0.0000 C   0  0  0  0  0  4  0  0  0  0  0  0
    3.4175    0.5872    0.0000 N   0  0  0  0  0  3  0  0  0  0  0  0
    3.5891    1.3942    0.0000 C   0  0  0  0  0  4  0  0  0  0  0  0
    2.6329    0.3323    0.0000 N   0  0  0  0  0  3  0  0  0  0  0  0
    2.0198    0.8843    0.0000 N   0  0  0  0  0  3  0  0  0  0  0  0
    1.2352    0.6294    0.0000 C   0  0  0  0  0  4  0  0  0  0  0  0
    0.9803   -0.1553    0.0000 N   0  0  0  0  0  3  0  0  0  0  0  0
    0.1553   -0.1553    0.0000 C   0  0  0  0  0  4  0  0  0  0  0  0
   -0.0997    0.6294    0.0000 N   0  0  0  0  0  3  0  0  0  0  0  0
    0.5678    1.1143    0.0000 C   0  0  0  0  0  4  0  0  0  0  0  0
    0.5678    1.9393    0.0000 C   0  0  0  0  0  4  0  0  0  0  0  0
   -0.1467    2.3518    0.0000 N   0  0  0  0  0  3  0  0  0  0  0  0
    1.2822    2.3518    0.0000 O   0  0  0  0  0  2  0  0  0  0  0  0
  1  2  1  0  0  0  0 
  2  3  1  0  0  0  0 
  4  2  1  4  0  0  0 
  4  5  2  0  0  0  0 
  5  6  1  0  0  0  0 
  6  7  1  0  0  0  0 
  7  8  2  0  0  0  0 
  8  9  1  0  0  0  0 
  9 10  1  0  0  0  0 
  6 10  2  0  0  0  0 
 10 11  1  0  0  0  0 
 11 12  1  0  0  0  0 
 11 13  2  0  0  0  0 
M  END
> <Mol Weight>
182.1832

> <Formula>
C6H10N6O

> <CdId>
160

> <RCDK_LipinskiFailures>
0

> <source>
FDA

> <name>
Dacarbazine

> <ABUNDANCE>
100% at pH 4.8

> <BLABBER_CHARGE>


> <CHECK TAUTOMER>
Multiple tautomers in input structure. Results could be inaccurate.

> <inchi>
1S/C6H10N6O/c1-12(2)11-10-6-4(5(7)13)8-3-9-6/h3H,1-2H3,(H2,7,13)(H,8,9)/b11-10+

> <activity>
0

$$$$

  CDK     0331111707

 17 18  0  0  0  0  0  0  0  0999 V2000
    0.7145    6.7661    0.0000 N   0  0  0  0  0  3  0  0  0  0  0  0
    0.7145    5.9411    0.0000 C   0  0  0  0  0  4  0  0  0  0  0  0
    1.4289    5.5286    0.0000 C   0  0  0  0  0  4  0  0  0  0  0  0
    1.4289    4.7036    0.0000 C   0  0  0  0  0  4  0  0  0  0  0  0
    0.7145    4.2911    0.0000 N   0  0  0  0  0  3  0  0  0  0  0  0
    0.0000    4.7036    0.0000 C   0  0  0  0  0  4  0  0  0  0  0  0
   -0.7145    4.2911    0.0000 O   0  0  0  0  0  2  0  0  0  0  0  0
   -0.0000    5.5286    0.0000 N   0  0  0  0  0  3  0  0  0  0  0  0
    0.7145    3.4661    0.0000 C   0  0  0  0  0  4  0  0  0  0  0  0
    1.3819    2.9812    0.0000 O   0  0  0  0  0  2  0  0  0  0  0  0
    1.1270    2.1965    0.0000 C   0  0  0  0  0  4  0  0  0  0  0  0
    1.6119    1.5291    0.0000 C   0  0  0  0  0  4  0  0  0  0  0  0
    2.4324    1.6153    0.0000 O   0  0  0  0  0  2  0  0  0  0  0  0
    0.3020    2.1965    0.0000 C   0  0  0  0  0  4  0  0  0  0  0  0
   -0.1830    1.5291    0.0000 O   0  0  0  0  0  2  0  0  0  0  0  0
    0.0470    2.9812    0.0000 C   0  0  0  0  0  4  0  0  0  0  0  0
   -0.7376    3.2361    0.0000 O   0  0  0  0  0  2  0  0  0  0  0  0
  1  2  1  0  0  0  0 
  2  3  1  0  0  0  0 
  3  4  2  0  0  0  0 
  4  5  1  0  0  0  0 
  5  6  1  0  0  0  0 
  6  7  2  0  0  0  0 
  6  8  1  0  0  0  0 
  2  8  2  0  0  0  0 
  5  9  1  0  0  0  0 
  9 10  1  0  0  0  0 
 10 11  1  0  0  0  0 
 11 12  1  0  0  0  0 
 12 13  1  0  0  0  0 
 11 14  1  0  0  0  0 
 14 15  1  0  0  0  0 
 14 16  1  0  0  0  0 
  9 16  1  0  0  0  0 
 16 17  1  0  0  0  0 
M  END
> <Mol Weight>
243.2166

> <Formula>
C9H13N3O5

> <CdId>
159

> <RCDK_LipinskiFailures>
0

> <source>
FDA

> <name>
Cytarabine

> <ABUNDANCE>
81.2% at pH 4.8

> <BLABBER_CHARGE>


> <inchi>
1S/C9H13N3O5/c10-5-1-2-12(9(16)11-5)8-7(15)6(14)4(3-13)17-8/h1-2,4,6-8,13-15H,3H2,(H2,10,11,16)

> <activity>
0

$$$$

  CDK     0331111707

  4  3  0  0  0  0  0  0  0  0999 V2000
    2.0625   -0.7145    0.0000 N   0  0  0  0  0  4  0  0  0  0  0  0
    1.2375   -0.7145    0.0000 C   0  0  0  0  0  4  0  0  0  0  0  0
    0.8250    0.0000    0.0000 C   0  0  0  0  0  4  0  0  0  0  0  0
    0.0000    0.0000    0.0000 S   0  0  0  0  0  2  0  0  0  0  0  0
  1  2  1  0  0  0  0 
  2  3  1  0  0  0  0 
  3  4  1  0  0  0  0 
M  CHG  1   1   1
M  END
> <Mol Weight>
77.149

> <Formula>
C2H7NS

> <CdId>
158

> <RCDK_LipinskiFailures>
0

> <source>
FDA

> <name>
Cysteamine

> <ABUNDANCE>
99.99% at pH 4.8

> <BLABBER_CHARGE>
1

> <inchi>
1S/C2H7NS/c3-1-2-4/h4H,1-3H2

> <activity>
0

$$$$

  CDK     0331111707

 29 33  0  0  0  0  0  0  0  0999 V2000
    1.0383   -2.7613    0.0000 C   0  0  0  0  0  4  0  0  0  0  0  0
    1.7921   -2.4262    0.0000 C   0  0  0  0  0  4  0  0  0  0  0  0
    1.8789   -1.6057    0.0000 O   0  0  0  0  0  2  0  0  0  0  0  0
    2.4593   -2.9115    0.0000 O   0  0  0  0  0  2  0  0  0  0  0  0
    3.2132   -2.5764    0.0000 C   0  0  0  0  0  4  0  0  0  0  0  0
    2.8011   -1.8617    0.0000 C   0  0  0  0  0  4  0  0  0  0  0  0
    3.3535   -1.2489    0.0000 C   0  0  0  0  0  4  0  0  0  0  0  0
    4.1070   -1.5849    0.0000 C   0  0  0  0  0  4  0  0  0  0  0  0
    4.8609   -1.2498    0.0000 C   0  0  0  0  0  4  0  0  0  0  0  0
    4.9476   -0.4294    0.0000 C   0  0  0  0  0  4  0  0  0  0  0  0
    5.7015   -0.0943    0.0000 C   0  0  0  0  0  4  0  0  0  0  0  0
    5.7882    0.7261    0.0000 Cl  0  0  0  0  0  1  0  0  0  0  0  0
    6.3686   -0.5796    0.0000 C   0  0  0  0  0  4  0  0  0  0  0  0
    7.1225   -0.2445    0.0000 C   0  0  0  0  0  4  0  0  0  0  0  0
    7.7896   -0.7298    0.0000 C   0  0  0  0  0  4  0  0  0  0  0  0
    8.5435   -0.3947    0.0000 O   0  0  0  0  0  2  0  0  0  0  0  0
    7.7029   -1.5503    0.0000 C   0  0  0  0  0  4  0  0  0  0  0  0
    7.6162   -2.3707    0.0000 C   0  0  0  0  0  4  0  0  0  0  0  0
    6.9490   -1.8854    0.0000 C   0  0  0  0  0  4  0  0  0  0  0  0
    6.2819   -1.4000    0.0000 C   0  0  0  0  0  4  0  0  0  0  0  0
    6.1951   -2.2205    0.0000 C   0  0  0  0  0  4  0  0  0  0  0  0
    5.5280   -1.7351    0.0000 C   0  0  0  0  0  4  0  0  0  0  0  0
    5.4413   -2.5556    0.0000 C   0  0  0  0  0  4  0  0  0  0  0  0
    4.6874   -2.8907    0.0000 C   0  0  0  0  0  4  0  0  0  0  0  0
    4.0202   -2.4053    0.0000 C   0  0  0  0  0  4  0  0  0  0  0  0
    3.8482   -3.2122    0.0000 C   0  0  0  0  0  4  0  0  0  0  0  0
    3.4676   -3.3612    0.0000 C   0  0  0  0  0  4  0  0  0  0  0  0
    4.2745   -3.5332    0.0000 O   0  0  0  0  0  2  0  0  0  0  0  0
    2.9152   -3.9739    0.0000 C   0  0  0  0  0  4  0  0  0  0  0  0
  1  2  1  0  0  0  0 
  2  3  2  0  0  0  0 
  2  4  1  0  0  0  0 
  4  5  1  0  0  0  0 
  5  6  1  0  0  0  0 
  6  7  1  0  0  0  0 
  7  8  1  0  0  0  0 
  8  9  1  0  0  0  0 
  9 10  1  0  0  0  0 
 10 11  2  0  0  0  0 
 11 12  1  0  0  0  0 
 11 13  1  0  0  0  0 
 13 14  2  0  0  0  0 
 14 15  1  0  0  0  0 
 15 16  2  0  0  0  0 
 15 17  1  0  0  0  0 
 17 18  1  0  0  0  0 
 18 19  1  0  0  0  0 
 17 19  1  0  0  0  0 
 19 20  1  0  0  0  0 
 13 20  1  0  0  0  0 
 20 21  1  0  0  0  0 
 20 22  1  0  0  0  0 
  9 22  1  0  0  0  0 
 22 23  1  0  0  0  0 
 23 24  1  0  0  0  0 
 24 25  1  0  0  0  0 
  5 25  1  0  0  0  0 
  8 25  1  0  0  0  0 
 25 26  1  0  0  0  0 
  5 27  1  0  0  0  0 
 27 28  2  0  0  0  0 
 27 29  1  0  0  0  0 
M  END
> <Mol Weight>
416.938

> <Formula>
C24H29ClO4

> <CdId>
157

> <RCDK_LipinskiFailures>
0

> <source>
BYLER

> <name>
cyproterone acetate

> <ABUNDANCE>
No species found

> <BLABBER_CHARGE>


> <inchi>
1S/C24H29ClO4/c1-12(26)24(29-13(2)27)8-6-16-14-10-20(25)19-11-21(28)15-9-18(15)23(19,4)17(14)5-7-22(16,24)3/h10-11,14-18H,5-9H2,1-4H3

> <activity>
0

$$$$

  CDK     0331111707

 26 30  0  0  0  0  0  0  0  0999 V2000
    1.7921   -2.4262    0.0000 C   0  0  0  0  0  4  0  0  0  0  0  0
    2.4593   -2.9115    0.0000 C   0  0  0  0  0  4  0  0  0  0  0  0
    2.3726   -3.7319    0.0000 O   0  0  0  0  0  2  0  0  0  0  0  0
    3.2132   -2.5764    0.0000 C   0  0  0  0  0  4  0  0  0  0  0  0
    3.4676   -3.3612    0.0000 O   0  0  0  0  0  2  0  0  0  0  0  0
    2.8011   -1.8617    0.0000 C   0  0  0  0  0  4  0  0  0  0  0  0
    3.3535   -1.2489    0.0000 C   0  0  0  0  0  4  0  0  0  0  0  0
    4.1070   -1.5849    0.0000 C   0  0  0  0  0  4  0  0  0  0  0  0
    4.8609   -1.2498    0.0000 C   0  0  0  0  0  4  0  0  0  0  0  0
    4.9476   -0.4294    0.0000 C   0  0  0  0  0  4  0  0  0  0  0  0
    5.7015   -0.0943    0.0000 C   0  0  0  0  0  4  0  0  0  0  0  0
    6.3686   -0.5796    0.0000 C   0  0  0  0  0  4  0  0  0  0  0  0
    7.1225   -0.2445    0.0000 C   0  0  0  0  0  4  0  0  0  0  0  0
    7.7896   -0.7298    0.0000 C   0  0  0  0  0  4  0  0  0  0  0  0
    8.5435   -0.3947    0.0000 O   0  0  0  0  0  2  0  0  0  0  0  0
    7.7029   -1.5503    0.0000 C   0  0  0  0  0  4  0  0  0  0  0  0
    7.6162   -2.3707    0.0000 C   0  0  0  0  0  4  0  0  0  0  0  0
    6.9490   -1.8854    0.0000 C   0  0  0  0  0  4  0  0  0  0  0  0
    6.2819   -1.4000    0.0000 C   0  0  0  0  0  4  0  0  0  0  0  0
    6.1951   -2.2205    0.0000 C   0  0  0  0  0  4  0  0  0  0  0  0
    5.5280   -1.7351    0.0000 C   0  0  0  0  0  4  0  0  0  0  0  0
    5.4413   -2.5556    0.0000 C   0  0  0  0  0  4  0  0  0  0  0  0
    4.6874   -2.8907    0.0000 C   0  0  0  0  0  4  0  0  0  0  0  0
    4.0202   -2.4053    0.0000 C   0  0  0  0  0  4  0  0  0  0  0  0
    3.8482   -3.2122    0.0000 C   0  0  0  0  0  4  0  0  0  0  0  0
    5.7882    0.7261    0.0000 Cl  0  0  0  0  0  1  0  0  0  0  0  0
  1  2  1  0  0  0  0 
  2  3  2  0  0  0  0 
  2  4  1  0  0  0  0 
  4  5  1  0  0  0  0 
  4  6  1  0  0  0  0 
  6  7  1  0  0  0  0 
  7  8  1  0  0  0  0 
  8  9  1  0  0  0  0 
  9 10  1  0  0  0  0 
 10 11  2  0  0  0  0 
 11 12  1  0  0  0  0 
 12 13  2  0  0  0  0 
 13 14  1  0  0  0  0 
 14 15  2  0  0  0  0 
 14 16  1  0  0  0  0 
 16 17  1  0  0  0  0 
 17 18  1  0  0  0  0 
 16 18  1  0  0  0  0 
 18 19  1  0  0  0  0 
 12 19  1  0  0  0  0 
 19 20  1  0  0  0  0 
 19 21  1  0  0  0  0 
  9 21  1  0  0  0  0 
 21 22  1  0  0  0  0 
 22 23  1  0  0  0  0 
 23 24  1  0  0  0  0 
  8 24  1  0  0  0  0 
  4 24  1  0  0  0  0 
 24 25  1  0  0  0  0 
 11 26  1  0  0  0  0 
M  END
> <Mol Weight>
374.901

> <Formula>
C22H27ClO3

> <CdId>
156

> <RCDK_LipinskiFailures>
0

> <source>
FDA

> <name>
Cyproterone

> <ABUNDANCE>
100% at pH 4.8

> <BLABBER_CHARGE>


> <inchi>
1S/C22H27ClO3/c1-11(24)22(26)7-5-14-12-9-18(23)17-10-19(25)13-8-16(13)21(17,3)15(12)4-6-20(14,22)2/h9-10,12-16,26H,4-8H2,1-3H3

> <activity>
0

$$$$

  CDK     0331111707

 27 29  0  0  0  0  0  0  0  0999 V2000
    1.4289    0.8250    0.0000 C   0  0  0  0  0  4  0  0  0  0  0  0
    1.4289    0.0000    0.0000 C   0  0  0  0  0  4  0  0  0  0  0  0
    0.7145   -0.4125    0.0000 O   0  0  0  0  0  2  0  0  0  0  0  0
    2.1434   -0.4125    0.0000 O   0  0  0  0  0  2  0  0  0  0  0  0
    2.1434   -1.2375    0.0000 C   0  0  0  0  0  4  0  0  0  0  0  0
    2.8579   -1.6500    0.0000 C   0  0  0  0  0  4  0  0  0  0  0  0
    2.8579   -2.4750    0.0000 C   0  0  0  0  0  4  0  0  0  0  0  0
    2.1434   -2.8875    0.0000 C   0  0  0  0  0  4  0  0  0  0  0  0
    1.4289   -2.4750    0.0000 C   0  0  0  0  0  4  0  0  0  0  0  0
    1.4289   -1.6500    0.0000 C   0  0  0  0  0  4  0  0  0  0  0  0
    2.1434   -3.7125    0.0000 C   0  0  0  0  0  4  0  0  0  0  0  0
    2.8579   -4.1250    0.0000 C   0  0  0  0  0  4  0  0  0  0  0  0
    3.5724   -3.7125    0.0000 C   0  0  0  0  0  4  0  0  0  0  0  0
    4.2868   -4.1250    0.0000 C   0  0  0  0  0  4  0  0  0  0  0  0
    4.2868   -4.9500    0.0000 C   0  0  0  0  0  4  0  0  0  0  0  0
    3.5724   -5.3625    0.0000 C   0  0  0  0  0  4  0  0  0  0  0  0
    2.8579   -4.9500    0.0000 C   0  0  0  0  0  4  0  0  0  0  0  0
    1.4289   -4.1250    0.0000 C   0  0  0  0  0  4  0  0  0  0  0  0
    1.4289   -4.9500    0.0000 C   0  0  0  0  0  4  0  0  0  0  0  0
    0.7145   -5.3625    0.0000 C   0  0  0  0  0  4  0  0  0  0  0  0
   -0.0000   -4.9500    0.0000 C   0  0  0  0  0  4  0  0  0  0  0  0
    0.0000   -4.1250    0.0000 C   0  0  0  0  0  4  0  0  0  0  0  0
    0.7145   -3.7125    0.0000 C   0  0  0  0  0  4  0  0  0  0  0  0
   -0.7145   -5.3625    0.0000 O   0  0  0  0  0  2  0  0  0  0  0  0
   -1.4289   -4.9500    0.0000 C   0  0  0  0  0  4  0  0  0  0  0  0
   -2.1434   -5.3625    0.0000 C   0  0  0  0  0  4  0  0  0  0  0  0
   -1.4289   -4.1250    0.0000 O   0  0  0  0  0  2  0  0  0  0  0  0
  1  2  1  0  0  0  0 
  2  3  2  0  0  0  0 
  2  4  1  0  0  0  0 
  4  5  1  0  0  0  0 
  5  6  2  0  0  0  0 
  6  7  1  0  0  0  0 
  7  8  2  0  0  0  0 
  8  9  1  0  0  0  0 
  9 10  2  0  0  0  0 
  5 10  1  0  0  0  0 
  8 11  1  0  0  0  0 
 11 12  2  0  0  0  0 
 12 13  1  0  0  0  0 
 13 14  1  0  0  0  0 
 14 15  1  0  0  0  0 
 15 16  1  0  0  0  0 
 16 17  1  0  0  0  0 
 12 17  1  0  0  0  0 
 11 18  1  0  0  0  0 
 18 19  2  0  0  0  0 
 19 20  1  0  0  0  0 
 20 21  2  0  0  0  0 
 21 22  1  0  0  0  0 
 22 23  2  0  0  0  0 
 18 23  1  0  0  0  0 
 21 24  1  0  0  0  0 
 24 25  1  0  0  0  0 
 25 26  1  0  0  0  0 
 25 27  2  0  0  0  0 
M  END
> <Mol Weight>
364.4343

> <Formula>
C23H24O4

> <CdId>
155

> <RCDK_LipinskiFailures>
0

> <source>
FDA

> <name>
Cyclofenil

> <ABUNDANCE>
No species found

> <BLABBER_CHARGE>


> <inchi>
1S/C23H24O4/c1-16(24)26-21-12-8-19(9-13-21)23(18-6-4-3-5-7-18)20-10-14-22(15-11-20)27-17(2)25/h8-15H,3-7H2,1-2H3

> <activity>
0

$$$$

  CDK     0331111707

 17 18  0  0  0  0  0  0  0  0999 V2000
   -0.0980   -0.5558    0.0000 C   0  0  0  0  0  4  0  0  0  0  0  0
    0.7145   -0.4125    0.0000 C   0  0  0  0  0  4  0  0  0  0  0  0
    1.2448   -1.0445    0.0000 C   0  0  0  0  0  4  0  0  0  0  0  0
    1.9592   -1.4570    0.0000 C   0  0  0  0  0  4  0  0  0  0  0  0
    2.6737   -1.0445    0.0000 O   0  0  0  0  0  2  0  0  0  0  0  0
    1.9592   -2.2820    0.0000 N   0  0  0  0  0  3  0  0  0  0  0  0
    1.2448   -2.6945    0.0000 C   0  0  0  0  0  4  0  0  0  0  0  0
    1.2448   -3.5195    0.0000 O   0  0  0  0  0  2  0  0  0  0  0  0
    0.5303   -2.2820    0.0000 N   0  0  0  0  0  3  0  0  0  0  0  0
    0.5303   -1.4570    0.0000 C   0  0  0  0  0  4  0  0  0  0  0  0
   -0.1842   -1.0445    0.0000 O   0  0  0  0  0  2  0  0  0  0  0  0
    1.7751   -0.4125    0.0000 C   0  0  0  0  0  4  0  0  0  0  0  0
    1.4929    0.3627    0.0000 C   0  0  0  0  0  4  0  0  0  0  0  0
    2.0232    0.9947    0.0000 C   0  0  0  0  0  4  0  0  0  0  0  0
    2.8357    0.8515    0.0000 C   0  0  0  0  0  4  0  0  0  0  0  0
    3.1178    0.0762    0.0000 C   0  0  0  0  0  4  0  0  0  0  0  0
    2.5875   -0.5558    0.0000 C   0  0  0  0  0  4  0  0  0  0  0  0
  1  2  1  0  0  0  0 
  2  3  1  0  0  0  0 
  3  4  1  0  0  0  0 
  4  5  2  0  0  0  0 
  4  6  1  0  0  0  0 
  6  7  1  0  0  0  0 
  7  8  2  0  0  0  0 
  7  9  1  0  0  0  0 
  9 10  1  0  0  0  0 
  3 10  1  0  0  0  0 
 10 11  2  0  0  0  0 
  3 12  1  0  0  0  0 
 12 13  2  0  0  0  0 
 13 14  1  0  0  0  0 
 14 15  1  0  0  0  0 
 15 16  1  0  0  0  0 
 16 17  1  0  0  0  0 
 12 17  1  0  0  0  0 
M  END
> <Mol Weight>
236.267

> <Formula>
C12H16N2O3

> <CdId>
154

> <RCDK_LipinskiFailures>
0

> <source>
FDA

> <name>
Cyclobarbital

> <ABUNDANCE>
99.9% at pH 4.8

> <BLABBER_CHARGE>


> <inchi>
1S/C12H16N2O3/c1-2-12(8-6-4-3-5-7-8)9(15)13-11(17)14-10(12)16/h6H,2-5,7H2,1H3,(H2,13,14,15,16,17)

> <activity>
0

$$$$

  CDK     0331111707

 20 23  0  0  0  0  0  0  0  0999 V2000
    1.9042    0.8458    0.0000 C   0  0  0  0  0  4  0  0  0  0  0  0
    1.5964    0.0504    0.0000 C   0  0  0  0  0  4  0  0  0  0  0  0
    1.7614   -1.3720    0.0000 C   0  0  0  0  0  4  0  0  0  0  0  0
    1.1447   -1.6276    0.0000 C   0  0  0  0  0  4  0  0  0  0  0  0
    0.3237   -1.4203    0.0000 N   0  0  0  0  0  4  0  0  0  0  0  0
    0.1134   -0.9488    0.0000 C   0  0  0  0  0  4  0  0  0  0  0  0
    0.7328   -0.6921    0.0000 C   0  0  0  0  0  4  0  0  0  0  0  0
    1.5492   -0.8951    0.0000 C   0  0  0  0  0  4  0  0  0  0  0  0
    2.2007   -0.3511    0.0000 C   0  0  0  0  0  4  0  0  0  0  0  0
    2.3805   -1.2636    0.0000 C   0  0  0  0  0  4  0  0  0  0  0  0
    2.9018   -0.6242    0.0000 C   0  0  0  0  0  4  0  0  0  0  0  0
    3.7162   -0.7560    0.0000 C   0  0  0  0  0  4  0  0  0  0  0  0
    4.2507   -0.1039    0.0000 O   0  0  0  0  0  2  0  0  0  0  0  0
    4.0093   -1.5272    0.0000 C   0  0  0  0  0  4  0  0  0  0  0  0
    3.4880   -2.1666    0.0000 C   0  0  0  0  0  4  0  0  0  0  0  0
    2.6736   -2.0348    0.0000 C   0  0  0  0  0  4  0  0  0  0  0  0
   -0.2185   -2.0741    0.0000 C   0  0  0  0  0  4  0  0  0  0  0  0
   -1.0196   -1.9075    0.0000 C   0  0  0  0  0  4  0  0  0  0  0  0
   -1.8031   -2.1658    0.0000 C   0  0  0  0  0  4  0  0  0  0  0  0
   -1.6351   -1.3581    0.0000 C   0  0  0  0  0  4  0  0  0  0  0  0
  1  2  1  0  0  0  0 
  2  3  1  0  0  0  0 
  3  4  1  0  0  0  0 
  4  5  1  0  0  0  0 
  5  6  1  0  0  0  0 
  6  7  1  0  0  0  0 
  7  8  1  0  0  0  0 
  2  8  1  0  0  0  0 
  8  9  1  0  0  0  0 
  8 10  1  0  0  0  0 
 10 11  2  0  0  0  0 
 11 12  1  0  0  0  0 
 12 13  1  0  0  0  0 
 12 14  2  0  0  0  0 
 14 15  1  0  0  0  0 
 15 16  2  0  0  0  0 
  3 16  1  0  0  0  0 
 10 16  1  0  0  0  0 
  5 17  1  0  0  0  0 
 17 18  1  0  0  0  0 
 18 19  1  0  0  0  0 
 19 20  1  0  0  0  0 
 18 20  1  0  0  0  0 
M  CHG  1   5   1
M  END
> <Mol Weight>
271.3972

> <Formula>
C18H25NO

> <CdId>
152

> <RCDK_LipinskiFailures>
0

> <source>
FDA

> <name>
Cyclazocine

> <ABUNDANCE>
100% at pH 4.8

> <BLABBER_CHARGE>
1

> <inchi>
1S/C18H25NO/c1-12-16-11-19(10-13-3-4-13)8-7-18(12,2)17-9-14(20)5-6-15(16)17/h5-6,9,12-13,16,20H,3-4,7-8,10-11H2,1-2H3

> <activity>
0

$$$$

  CDK     0331111707

 20 21  0  0  0  0  0  0  0  0999 V2000
    4.2868   -4.1250    0.0000 C   0  0  0  0  0  4  0  0  0  0  0  0
    3.5724   -3.7125    0.0000 C   0  0  0  0  0  4  0  0  0  0  0  0
    2.8579   -4.1250    0.0000 C   0  0  0  0  0  4  0  0  0  0  0  0
    2.1434   -3.7125    0.0000 C   0  0  0  0  0  4  0  0  0  0  0  0
    2.1434   -2.8875    0.0000 C   0  0  0  0  0  4  0  0  0  0  0  0
    2.8579   -2.4750    0.0000 C   0  0  0  0  0  4  0  0  0  0  0  0
    2.3276   -1.8430    0.0000 C   0  0  0  0  0  4  0  0  0  0  0  0
    3.3882   -1.8430    0.0000 C   0  0  0  0  0  4  0  0  0  0  0  0
    3.5724   -2.8875    0.0000 C   0  0  0  0  0  4  0  0  0  0  0  0
    1.4289   -4.1250    0.0000 O   0  0  0  0  0  2  0  0  0  0  0  0
    0.7145   -3.7125    0.0000 C   0  0  0  0  0  4  0  0  0  0  0  0
    0.7145   -2.8875    0.0000 O   0  0  0  0  0  2  0  0  0  0  0  0
    0.0000   -4.1250    0.0000 C   0  0  0  0  0  4  0  0  0  0  0  0
    0.0000   -4.9500    0.0000 O   0  0  0  0  0  2  0  0  0  0  0  0
   -0.7145   -3.7125    0.0000 C   0  0  0  0  0  4  0  0  0  0  0  0
   -1.4289   -4.1250    0.0000 C   0  0  0  0  0  4  0  0  0  0  0  0
   -2.1434   -3.7125    0.0000 C   0  0  0  0  0  4  0  0  0  0  0  0
   -2.1434   -2.8875    0.0000 C   0  0  0  0  0  4  0  0  0  0  0  0
   -1.4289   -2.4750    0.0000 C   0  0  0  0  0  4  0  0  0  0  0  0
   -0.7145   -2.8875    0.0000 C   0  0  0  0  0  4  0  0  0  0  0  0
  1  2  1  0  0  0  0 
  2  3  1  0  0  0  0 
  3  4  1  0  0  0  0 
  4  5  1  0  0  0  0 
  5  6  1  0  0  0  0 
  6  7  1  0  0  0  0 
  6  8  1  0  0  0  0 
  6  9  1  0  0  0  0 
  2  9  1  0  0  0  0 
  4 10  1  0  0  0  0 
 10 11  1  0  0  0  0 
 11 12  2  0  0  0  0 
 11 13  1  0  0  0  0 
 13 14  1  0  0  0  0 
 13 15  1  0  0  0  0 
 15 16  2  0  0  0  0 
 16 17  1  0  0  0  0 
 17 18  2  0  0  0  0 
 18 19  1  0  0  0  0 
 19 20  2  0  0  0  0 
 15 20  1  0  0  0  0 
M  END
> <Mol Weight>
276.3707

> <Formula>
C17H24O3

> <CdId>
151

> <RCDK_LipinskiFailures>
0

> <source>
FDA

> <name>
Cyclandelate

> <ABUNDANCE>
100% at pH 4.8

> <BLABBER_CHARGE>


> <inchi>
1S/C17H24O3/c1-12-9-14(11-17(2,3)10-12)20-16(19)15(18)13-7-5-4-6-8-13/h4-8,12,14-15,18H,9-11H2,1-3H3

> <activity>
0

$$$$

  CDK     0331111707

 29 31  0  0  0  0  0  0  0  0999 V2000
    7.0240    0.4618    0.0000 C   0  0  0  0  0  4  0  0  0  0  0  0
    6.2669    0.7895    0.0000 O   0  0  0  0  0  2  0  0  0  0  0  0
    5.6045    0.2976    0.0000 C   0  0  0  0  0  4  0  0  0  0  0  0
    4.8740    0.6810    0.0000 C   0  0  0  0  0  4  0  0  0  0  0  0
    4.1188    0.3489    0.0000 C   0  0  0  0  0  4  0  0  0  0  0  0
    3.9076   -0.4486    0.0000 C   0  0  0  0  0  4  0  0  0  0  0  0
    4.3994   -1.1110    0.0000 C   0  0  0  0  0  4  0  0  0  0  0  0
    5.2239   -1.1394    0.0000 C   0  0  0  0  0  4  0  0  0  0  0  0
    5.7602   -0.5125    0.0000 C   0  0  0  0  0  4  0  0  0  0  0  0
    6.5578   -0.7237    0.0000 O   0  0  0  0  0  2  0  0  0  0  0  0
    4.1882   -1.9085    0.0000 C   0  0  0  0  0  4  0  0  0  0  0  0
    3.4330   -2.2406    0.0000 C   0  0  0  0  0  4  0  0  0  0  0  0
    2.7025   -1.8572    0.0000 C   0  0  0  0  0  4  0  0  0  0  0  0
    2.5468   -1.0471    0.0000 C   0  0  0  0  0  4  0  0  0  0  0  0
    1.7357   -0.8960    0.0000 C   0  0  0  0  0  4  0  0  0  0  0  0
    1.4610   -0.1181    0.0000 C   0  0  0  0  0  4  0  0  0  0  0  0
    0.6499    0.0329    0.0000 O   0  0  0  0  0  2  0  0  0  0  0  0
    0.1136   -0.5940    0.0000 C   0  0  0  0  0  4  0  0  0  0  0  0
    1.9973    0.5088    0.0000 C   0  0  0  0  0  4  0  0  0  0  0  0
    1.7225    1.2867    0.0000 O   0  0  0  0  0  2  0  0  0  0  0  0
    2.2588    1.9136    0.0000 C   0  0  0  0  0  4  0  0  0  0  0  0
    2.8083    0.3577    0.0000 C   0  0  0  0  0  4  0  0  0  0  0  0
    3.3447    0.9846    0.0000 O   0  0  0  0  0  2  0  0  0  0  0  0
    4.1557    0.8336    0.0000 C   0  0  0  0  0  4  0  0  0  0  0  0
    3.0831   -0.4202    0.0000 C   0  0  0  0  0  4  0  0  0  0  0  0
    4.8151   -2.4448    0.0000 N   0  0  0  0  0  3  0  0  0  0  0  0
    5.5930   -2.1701    0.0000 C   0  0  0  0  0  4  0  0  0  0  0  0
    5.7440   -1.3590    0.0000 O   0  0  0  0  0  2  0  0  0  0  0  0
    6.2199   -2.7064    0.0000 C   0  0  0  0  0  4  0  0  0  0  0  0
  1  2  1  0  0  0  0 
  2  3  1  0  0  0  0 
  3  4  2  0  0  0  0 
  4  5  1  0  0  0  0 
  5  6  2  0  0  0  0 
  6  7  1  0  0  0  0 
  7  8  2  0  0  0  0 
  8  9  1  0  0  0  0 
  3  9  1  0  0  0  0 
  9 10  2  0  0  0  0 
  7 11  1  0  0  0  0 
 11 12  1  0  0  0  0 
 12 13  1  0  0  0  0 
 13 14  1  0  0  0  0 
 14 15  2  0  0  0  0 
 15 16  1  0  0  0  0 
 16 17  1  0  0  0  0 
 17 18  1  0  0  0  0 
 16 19  2  0  0  0  0 
 19 20  1  0  0  0  0 
 20 21  1  0  0  0  0 
 19 22  1  0  0  0  0 
 22 23  1  0  0  0  0 
 23 24  1  0  0  0  0 
 22 25  2  0  0  0  0 
  6 25  1  0  0  0  0 
 14 25  1  0  0  0  0 
 11 26  1  0  0  0  0 
 26 27  1  0  0  0  0 
 27 28  2  0  0  0  0 
 27 29  1  0  0  0  0 
M  END
> <Mol Weight>
399.437

> <Formula>
C22H25NO6

> <CdId>
148

> <RCDK_LipinskiFailures>
0

> <source>
BYLER

> <name>
colchicine

> <ABUNDANCE>
100% at pH 4.8

> <BLABBER_CHARGE>


> <inchi>
1S/C22H25NO6/c1-12(24)23-16-8-6-13-10-19(27-3)21(28-4)22(29-5)20(13)14-7-9-18(26-2)17(25)11-15(14)16/h7,9-11,16H,6,8H2,1-5H3,(H,23,24)

> <activity>
0

$$$$

  CDK     0331111707

 23 26  0  0  0  0  0  0  0  0999 V2000
    1.9594    3.9102    0.0000 C   0  0  0  0  0  4  0  0  0  0  0  0
    2.3173    3.1669    0.0000 N   0  0  0  0  0  4  0  0  0  0  0  0
    3.1400    3.1053    0.0000 C   0  0  0  0  0  4  0  0  0  0  0  0
    3.4980    2.3620    0.0000 C   0  0  0  0  0  4  0  0  0  0  0  0
    3.0332    1.6803    0.0000 N   0  0  0  0  0  3  0  0  0  0  0  0
    2.2105    1.7420    0.0000 C   0  0  0  0  0  4  0  0  0  0  0  0
    1.8526    2.4853    0.0000 C   0  0  0  0  0  4  0  0  0  0  0  0
    3.3912    0.9370    0.0000 C   0  0  0  0  0  4  0  0  0  0  0  0
    4.2162    0.9370    0.0000 N   0  0  0  0  0  4  0  0  0  0  0  0
    4.7305    0.2920    0.0000 C   0  0  0  0  0  4  0  0  0  0  0  0
    5.5189    0.5352    0.0000 C   0  0  0  0  0  4  0  0  0  0  0  0
    6.1237   -0.0260    0.0000 C   0  0  0  0  0  4  0  0  0  0  0  0
    5.9401   -0.8303    0.0000 C   0  0  0  0  0  4  0  0  0  0  0  0
    5.1517   -1.0735    0.0000 C   0  0  0  0  0  4  0  0  0  0  0  0
    4.5470   -0.5123    0.0000 C   0  0  0  0  0  4  0  0  0  0  0  0
    3.8037   -0.8703    0.0000 S   0  0  0  0  0  2  0  0  0  0  0  0
    3.0604   -0.5123    0.0000 C   0  0  0  0  0  4  0  0  0  0  0  0
    2.4556   -1.0735    0.0000 C   0  0  0  0  0  4  0  0  0  0  0  0
    1.6673   -0.8303    0.0000 C   0  0  0  0  0  4  0  0  0  0  0  0
    1.4837   -0.0260    0.0000 C   0  0  0  0  0  4  0  0  0  0  0  0
    2.0884    0.5352    0.0000 C   0  0  0  0  0  4  0  0  0  0  0  0
    2.8768    0.2920    0.0000 C   0  0  0  0  0  4  0  0  0  0  0  0
    0.6953    0.2172    0.0000 Cl  0  0  0  0  0  1  0  0  0  0  0  0
  1  2  1  0  0  0  0 
  2  3  1  0  0  0  0 
  3  4  1  0  0  0  0 
  4  5  1  0  0  0  0 
  5  6  1  0  0  0  0 
  6  7  1  0  0  0  0 
  2  7  1  0  0  0  0 
  5  8  1  0  0  0  0 
  8  9  2  0  0  0  0 
  9 10  1  0  0  0  0 
 10 11  2  0  0  0  0 
 11 12  1  0  0  0  0 
 12 13  2  0  0  0  0 
 13 14  1  0  0  0  0 
 14 15  2  0  0  0  0 
 10 15  1  0  0  0  0 
 15 16  1  0  0  0  0 
 16 17  1  0  0  0  0 
 17 18  2  0  0  0  0 
 18 19  1  0  0  0  0 
 19 20  2  0  0  0  0 
 20 21  1  0  0  0  0 
 21 22  2  0  0  0  0 
 17 22  1  0  0  0  0 
  8 22  1  0  0  0  0 
 20 23  1  0  0  0  0 
M  CHG  1   2   1
M  CHG  1   9   1
M  END
> <Mol Weight>
343.874

> <Formula>
C18H18ClN3S

> <CdId>
145

> <RCDK_LipinskiFailures>
0

> <source>
FDA

> <name>
Clothiapine

> <ABUNDANCE>
78.48% at pH 4.8

> <BLABBER_CHARGE>
2

> <inchi>
1S/C18H18ClN3S/c1-21-8-10-22(11-9-21)18-14-12-13(19)6-7-16(14)23-17-5-3-2-4-15(17)20-18/h2-7,12H,8-11H2,1H3

> <activity>
0

$$$$

  CDK     0331111707

 12 12  0  0  0  0  0  0  0  0999 V2000
    2.1434    2.8875    0.0000 C   0  0  0  0  0  4  0  0  0  0  0  0
    2.1434    2.0625    0.0000 C   0  0  0  0  0  4  0  0  0  0  0  0
    1.3184    2.0625    0.0000 C   0  0  0  0  0  4  0  0  0  0  0  0
    2.9684    2.0625    0.0000 N   0  0  0  0  0  4  0  0  0  0  0  0
    2.1434    1.2375    0.0000 C   0  0  0  0  0  4  0  0  0  0  0  0
    1.4289    0.8250    0.0000 C   0  0  0  0  0  4  0  0  0  0  0  0
    1.4289   -0.0000    0.0000 C   0  0  0  0  0  4  0  0  0  0  0  0
    0.7145   -0.4125    0.0000 C   0  0  0  0  0  4  0  0  0  0  0  0
    0.0000    0.0000    0.0000 C   0  0  0  0  0  4  0  0  0  0  0  0
    0.0000    0.8250    0.0000 C   0  0  0  0  0  4  0  0  0  0  0  0
    0.7145    1.2375    0.0000 C   0  0  0  0  0  4  0  0  0  0  0  0
    0.7145    2.0625    0.0000 Cl  0  0  0  0  0  1  0  0  0  0  0  0
  1  2  1  0  0  0  0 
  2  3  1  0  0  0  0 
  2  4  1  0  0  0  0 
  2  5  1  0  0  0  0 
  5  6  1  0  0  0  0 
  6  7  2  0  0  0  0 
  7  8  1  0  0  0  0 
  8  9  2  0  0  0  0 
  9 10  1  0  0  0  0 
 10 11  2  0  0  0  0 
  6 11  1  0  0  0  0 
 11 12  1  0  0  0  0 
M  CHG  1   4   1
M  END
> <Mol Weight>
183.678

> <Formula>
C10H14ClN

> <CdId>
144

> <RCDK_LipinskiFailures>
0

> <source>
FDA

> <name>
Clortermine

> <ABUNDANCE>
100% at pH 4.8

> <BLABBER_CHARGE>
1

> <inchi>
1S/C10H14ClN/c1-10(2,12)7-8-5-3-4-6-9(8)11/h3-6H,7,12H2,1-2H3

> <activity>
0

$$$$

  CDK     0331111707

 27 30  0  0  0  0  0  0  0  0999 V2000
    3.9503   -1.7461    0.0000 C   0  0  0  0  0  4  0  0  0  0  0  0
    3.6700   -0.9702    0.0000 C   0  0  0  0  0  4  0  0  0  0  0  0
    3.1382   -1.6009    0.0000 C   0  0  0  0  0  4  0  0  0  0  0  0
    2.3261   -1.4557    0.0000 C   0  0  0  0  0  4  0  0  0  0  0  0
    2.0458   -0.6798    0.0000 C   0  0  0  0  0  4  0  0  0  0  0  0
    1.2336   -0.5346    0.0000 O   0  0  0  0  0  2  0  0  0  0  0  0
    2.5776   -0.0491    0.0000 C   0  0  0  0  0  4  0  0  0  0  0  0
    3.3897   -0.1943    0.0000 C   0  0  0  0  0  4  0  0  0  0  0  0
    3.9215    0.4364    0.0000 C   0  0  0  0  0  4  0  0  0  0  0  0
    4.7336    0.2912    0.0000 C   0  0  0  0  0  4  0  0  0  0  0  0
    5.0139   -0.4847    0.0000 C   0  0  0  0  0  4  0  0  0  0  0  0
    5.8261   -0.6299    0.0000 C   0  0  0  0  0  4  0  0  0  0  0  0
    6.4774   -0.1236    0.0000 C   0  0  0  0  0  4  0  0  0  0  0  0
    7.1602   -0.5866    0.0000 C   0  0  0  0  0  4  0  0  0  0  0  0
    6.9309   -1.3791    0.0000 C   0  0  0  0  0  4  0  0  0  0  0  0
    7.7430   -1.5243    0.0000 O   0  0  0  0  0  2  0  0  0  0  0  0
    6.8714   -2.2019    0.0000 C   0  0  0  0  0  4  0  0  0  0  0  0
    7.5542   -2.6649    0.0000 O   0  0  0  0  0  2  0  0  0  0  0  0
    6.1290   -2.5618    0.0000 C   0  0  0  0  0  4  0  0  0  0  0  0
    6.0695   -3.3846    0.0000 O   0  0  0  0  0  2  0  0  0  0  0  0
    6.1064   -1.4059    0.0000 C   0  0  0  0  0  4  0  0  0  0  0  0
    6.4662   -2.1482    0.0000 C   0  0  0  0  0  4  0  0  0  0  0  0
    5.5745   -2.0366    0.0000 C   0  0  0  0  0  4  0  0  0  0  0  0
    4.7624   -1.8914    0.0000 C   0  0  0  0  0  4  0  0  0  0  0  0
    4.2306   -2.5221    0.0000 O   0  0  0  0  0  2  0  0  0  0  0  0
    4.4821   -1.1154    0.0000 C   0  0  0  0  0  4  0  0  0  0  0  0
    3.6412    1.2123    0.0000 Cl  0  0  0  0  0  1  0  0  0  0  0  0
  1  2  1  0  0  0  0 
  2  3  1  0  0  0  0 
  3  4  2  0  0  0  0 
  4  5  1  0  0  0  0 
  5  6  2  0  0  0  0 
  5  7  1  0  0  0  0 
  7  8  2  0  0  0  0 
  2  8  1  0  0  0  0 
  8  9  1  0  0  0  0 
  9 10  2  0  0  0  0 
 10 11  1  0  0  0  0 
 11 12  1  0  0  0  0 
 12 13  1  0  0  0  0 
 13 14  1  0  0  0  0 
 14 15  1  0  0  0  0 
 15 16  1  0  0  0  0 
 15 17  1  0  0  0  0 
 17 18  2  0  0  0  0 
 17 19  1  0  0  0  0 
 19 20  1  0  0  0  0 
 15 21  1  0  0  0  0 
 12 21  1  0  0  0  0 
 21 22  1  0  0  0  0 
 21 23  1  0  0  0  0 
 23 24  1  0  0  0  0 
 24 25  1  0  0  0  0 
 24 26  1  0  0  0  0 
 11 26  1  0  0  0  0 
  2 26  1  0  0  0  0 
  9 27  1  0  0  0  0 
M  END
> <Mol Weight>
392.873

> <Formula>
C21H25ClO5

> <CdId>
143

> <RCDK_LipinskiFailures>
0

> <source>
FDA

> <name>
Cloprednol

> <ABUNDANCE>
100% at pH 4.8

> <BLABBER_CHARGE>


> <inchi>
1S/C21H25ClO5/c1-19-5-3-11(24)7-14(19)15(22)8-12-13-4-6-21(27,17(26)10-23)20(13,2)9-16(25)18(12)19/h3,5,7-8,12-13,16,18,23,25,27H,4,6,9-10H2,1-2H3

> <activity>
0

$$$$

  CDK     0331111707

 14 15  0  0  0  0  0  0  0  0999 V2000
   -0.1067    5.5902    0.0000 C   0  0  0  0  0  4  0  0  0  0  0  0
    0.6078    6.0027    0.0000 C   0  0  0  0  0  4  0  0  0  0  0  0
    1.3222    5.5902    0.0000 C   0  0  0  0  0  4  0  0  0  0  0  0
    1.3222    4.7652    0.0000 C   0  0  0  0  0  4  0  0  0  0  0  0
    2.0367    4.3527    0.0000 N   0  0  0  0  0  4  0  0  0  0  0  0
    2.0367    3.5277    0.0000 C   0  0  0  0  0  4  0  0  0  0  0  0
    2.7041    3.0428    0.0000 N   0  0  0  0  0  3  0  0  0  0  0  0
    2.4492    2.2581    0.0000 C   0  0  0  0  0  4  0  0  0  0  0  0
    1.6242    2.2581    0.0000 C   0  0  0  0  0  4  0  0  0  0  0  0
    1.3693    3.0428    0.0000 N   0  0  0  0  0  3  0  0  0  0  0  0
    0.6078    4.3527    0.0000 C   0  0  0  0  0  4  0  0  0  0  0  0
   -0.1067    4.7652    0.0000 C   0  0  0  0  0  4  0  0  0  0  0  0
    0.6078    3.5277    0.0000 Cl  0  0  0  0  0  1  0  0  0  0  0  0
    2.0367    6.0027    0.0000 Cl  0  0  0  0  0  1  0  0  0  0  0  0
  1  2  2  0  0  0  0 
  2  3  1  0  0  0  0 
  3  4  2  0  0  0  0 
  4  5  1  0  0  0  0 
  5  6  2  0  0  0  0 
  6  7  1  0  0  0  0 
  7  8  1  0  0  0  0 
  8  9  1  0  0  0  0 
  9 10  1  0  0  0  0 
  6 10  1  0  0  0  0 
  4 11  1  0  0  0  0 
 11 12  2  0  0  0  0 
  1 12  1  0  0  0  0 
 11 13  1  0  0  0  0 
  3 14  1  0  0  0  0 
M  CHG  1   5   1
M  END
> <Mol Weight>
230.094

> <Formula>
C9H9Cl2N3

> <CdId>
142

> <RCDK_LipinskiFailures>
0

> <source>
FDA

> <name>
Clonidine

> <ABUNDANCE>
99.98% at pH 4.8

> <BLABBER_CHARGE>
1

> <CHECK TAUTOMER>
Multiple tautomers in input structure. Results could be inaccurate.

> <inchi>
1S/C9H9Cl2N3/c10-6-2-1-3-7(11)8(6)14-9-12-4-5-13-9/h1-3H,4-5H2,(H2,12,13,14)

> <activity>
0

$$$$

  CDK     0331111707

 17 17  0  0  0  0  0  0  0  0999 V2000
   -2.8018   -2.9037    0.0000 C   0  0  0  0  0  4  0  0  0  0  0  0
   -2.0010   -2.7055    0.0000 C   0  0  0  0  0  4  0  0  0  0  0  0
   -1.4289   -3.3000    0.0000 O   0  0  0  0  0  2  0  0  0  0  0  0
   -0.6281   -3.1018    0.0000 C   0  0  0  0  0  4  0  0  0  0  0  0
   -0.3993   -2.3092    0.0000 O   0  0  0  0  0  2  0  0  0  0  0  0
   -0.0561   -3.6963    0.0000 N   0  0  0  0  0  3  0  0  0  0  0  0
    0.7448   -3.4982    0.0000 C   0  0  0  0  0  4  0  0  0  0  0  0
    0.9429   -4.2990    0.0000 C   0  0  0  0  0  4  0  0  0  0  0  0
    0.5466   -2.6973    0.0000 C   0  0  0  0  0  4  0  0  0  0  0  0
    1.5456   -3.3000    0.0000 C   0  0  0  0  0  4  0  0  0  0  0  0
    2.1177   -3.8945    0.0000 C   0  0  0  0  0  4  0  0  0  0  0  0
    2.9185   -3.6963    0.0000 C   0  0  0  0  0  4  0  0  0  0  0  0
    3.4906   -4.2908    0.0000 C   0  0  0  0  0  4  0  0  0  0  0  0
    3.2617   -5.0834    0.0000 C   0  0  0  0  0  4  0  0  0  0  0  0
    2.4609   -5.2816    0.0000 C   0  0  0  0  0  4  0  0  0  0  0  0
    1.8889   -4.6871    0.0000 C   0  0  0  0  0  4  0  0  0  0  0  0
    3.8338   -5.6779    0.0000 Cl  0  0  0  0  0  1  0  0  0  0  0  0
  1  2  1  0  0  0  0 
  2  3  1  0  0  0  0 
  3  4  1  0  0  0  0 
  4  5  2  0  0  0  0 
  4  6  1  0  0  0  0 
  6  7  1  0  0  0  0 
  7  8  1  0  0  0  0 
  7  9  1  0  0  0  0 
  7 10  1  0  0  0  0 
 10 11  1  0  0  0  0 
 11 12  2  0  0  0  0 
 12 13  1  0  0  0  0 
 13 14  2  0  0  0  0 
 14 15  1  0  0  0  0 
 15 16  2  0  0  0  0 
 11 16  1  0  0  0  0 
 14 17  1  0  0  0  0 
M  END
> <Mol Weight>
255.741

> <Formula>
C13H18ClNO2

> <CdId>
139

> <RCDK_LipinskiFailures>
0

> <source>
FDA

> <name>
Cloforex

> <ABUNDANCE>
100% at pH 4.8

> <BLABBER_CHARGE>


> <inchi>
1S/C13H18ClNO2/c1-4-17-12(16)15-13(2,3)9-10-5-7-11(14)8-6-10/h5-8H,4,9H2,1-3H3,(H,15,16)

> <activity>
0

$$$$

  CDK     0331111707

 22 22  0  0  0  0  0  0  0  0999 V2000
   -3.5061   -5.2647    0.0000 C   0  0  0  0  0  4  0  0  0  0  0  0
   -2.8579   -5.7750    0.0000 N   0  0  0  0  0  3  0  0  0  0  0  0
   -2.9757   -6.5915    0.0000 C   0  0  0  0  0  4  0  0  0  0  0  0
   -2.0918   -5.4688    0.0000 C   0  0  0  0  0  4  0  0  0  0  0  0
   -1.9740   -4.6523    0.0000 O   0  0  0  0  0  2  0  0  0  0  0  0
   -1.4436   -5.9791    0.0000 C   0  0  0  0  0  4  0  0  0  0  0  0
   -0.6775   -5.6729    0.0000 C   0  0  0  0  0  4  0  0  0  0  0  0
   -0.0293   -6.1833    0.0000 C   0  0  0  0  0  4  0  0  0  0  0  0
    0.7368   -5.8771    0.0000 O   0  0  0  0  0  2  0  0  0  0  0  0
    1.3850   -6.3874    0.0000 C   0  0  0  0  0  4  0  0  0  0  0  0
    1.2671   -7.2039    0.0000 O   0  0  0  0  0  2  0  0  0  0  0  0
    2.1510   -6.0812    0.0000 C   0  0  0  0  0  4  0  0  0  0  0  0
    2.4572   -6.8473    0.0000 C   0  0  0  0  0  4  0  0  0  0  0  0
    1.8448   -5.3151    0.0000 C   0  0  0  0  0  4  0  0  0  0  0  0
    2.9171   -5.7750    0.0000 O   0  0  0  0  0  2  0  0  0  0  0  0
    3.5653   -6.2853    0.0000 C   0  0  0  0  0  4  0  0  0  0  0  0
    4.3314   -5.9791    0.0000 C   0  0  0  0  0  4  0  0  0  0  0  0
    4.9796   -6.4895    0.0000 C   0  0  0  0  0  4  0  0  0  0  0  0
    4.8618   -7.3060    0.0000 C   0  0  0  0  0  4  0  0  0  0  0  0
    4.0957   -7.6122    0.0000 C   0  0  0  0  0  4  0  0  0  0  0  0
    3.4475   -7.1019    0.0000 C   0  0  0  0  0  4  0  0  0  0  0  0
    5.5100   -7.8163    0.0000 Cl  0  0  0  0  0  1  0  0  0  0  0  0
  1  2  1  0  0  0  0 
  2  3  1  0  0  0  0 
  2  4  1  0  0  0  0 
  4  5  2  0  0  0  0 
  4  6  1  0  0  0  0 
  6  7  1  0  0  0  0 
  7  8  1  0  0  0  0 
  8  9  1  0  0  0  0 
  9 10  1  0  0  0  0 
 10 11  2  0  0  0  0 
 10 12  1  0  0  0  0 
 12 13  1  0  0  0  0 
 12 14  1  0  0  0  0 
 12 15  1  0  0  0  0 
 15 16  1  0  0  0  0 
 16 17  2  0  0  0  0 
 17 18  1  0  0  0  0 
 18 19  2  0  0  0  0 
 19 20  1  0  0  0  0 
 20 21  2  0  0  0  0 
 16 21  1  0  0  0  0 
 19 22  1  0  0  0  0 
M  END
> <Mol Weight>
327.803

> <Formula>
C16H22ClNO4

> <CdId>
138

> <RCDK_LipinskiFailures>
0

> <source>
FDA

> <name>
Clofibride

> <ABUNDANCE>
No species found

> <BLABBER_CHARGE>


> <inchi>
1S/C16H22ClNO4/c1-16(2,22-13-9-7-12(17)8-10-13)15(20)21-11-5-6-14(19)18(3)4/h7-10H,5-6,11H2,1-4H3

> <activity>
0

$$$$

  CDK     0331111707

 16 16  0  0  0  0  0  0  0  0999 V2000
   -2.0010   -2.7055    0.0000 C   0  0  0  0  0  4  0  0  0  0  0  0
   -1.4289   -3.3000    0.0000 C   0  0  0  0  0  4  0  0  0  0  0  0
   -0.6281   -3.1018    0.0000 O   0  0  0  0  0  2  0  0  0  0  0  0
   -0.0561   -3.6963    0.0000 C   0  0  0  0  0  4  0  0  0  0  0  0
   -0.2849   -4.4890    0.0000 O   0  0  0  0  0  2  0  0  0  0  0  0
    0.7448   -3.4982    0.0000 C   0  0  0  0  0  4  0  0  0  0  0  0
    0.9429   -4.2990    0.0000 C   0  0  0  0  0  4  0  0  0  0  0  0
    0.5466   -2.6973    0.0000 C   0  0  0  0  0  4  0  0  0  0  0  0
    1.5456   -3.3000    0.0000 O   0  0  0  0  0  2  0  0  0  0  0  0
    2.1177   -3.8945    0.0000 C   0  0  0  0  0  4  0  0  0  0  0  0
    2.9185   -3.6963    0.0000 C   0  0  0  0  0  4  0  0  0  0  0  0
    3.4906   -4.2908    0.0000 C   0  0  0  0  0  4  0  0  0  0  0  0
    3.2617   -5.0834    0.0000 C   0  0  0  0  0  4  0  0  0  0  0  0
    3.8338   -5.6779    0.0000 Cl  0  0  0  0  0  1  0  0  0  0  0  0
    2.4609   -5.2816    0.0000 C   0  0  0  0  0  4  0  0  0  0  0  0
    1.8889   -4.6871    0.0000 C   0  0  0  0  0  4  0  0  0  0  0  0
  1  2  1  0  0  0  0 
  2  3  1  0  0  0  0 
  3  4  1  0  0  0  0 
  4  5  2  0  0  0  0 
  4  6  1  0  0  0  0 
  6  7  1  0  0  0  0 
  6  8  1  0  0  0  0 
  6  9  1  0  0  0  0 
  9 10  1  0  0  0  0 
 10 11  2  0  0  0  0 
 11 12  1  0  0  0  0 
 12 13  2  0  0  0  0 
 13 14  1  0  0  0  0 
 13 15  1  0  0  0  0 
 15 16  2  0  0  0  0 
 10 16  1  0  0  0  0 
M  END
> <Mol Weight>
242.699

> <Formula>
C12H15ClO3

> <CdId>
137

> <RCDK_LipinskiFailures>
0

> <source>
BYLER

> <name>
clofibrate

> <ABUNDANCE>
No species found

> <BLABBER_CHARGE>


> <inchi>
1S/C12H15ClO3/c1-4-15-11(14)12(2,3)16-10-7-5-9(13)6-8-10/h5-8H,4H2,1-3H3

> <activity>
0

$$$$

  CDK     0331111707

 17 17  0  0  0  0  0  0  0  0999 V2000
   -0.2849   -4.4890    0.0000 C   0  0  0  0  0  4  0  0  0  0  0  0
   -0.0561   -3.6963    0.0000 C   0  0  0  0  0  4  0  0  0  0  0  0
   -0.6281   -3.1018    0.0000 C   0  0  0  0  0  4  0  0  0  0  0  0
   -1.4289   -3.3000    0.0000 N   0  0  0  0  0  4  0  0  0  0  0  0
   -2.0010   -2.7055    0.0000 C   0  0  0  0  0  4  0  0  0  0  0  0
   -1.6578   -4.0926    0.0000 C   0  0  0  0  0  4  0  0  0  0  0  0
    0.7448   -3.4982    0.0000 C   0  0  0  0  0  4  0  0  0  0  0  0
    0.9429   -4.2990    0.0000 C   0  0  0  0  0  4  0  0  0  0  0  0
    0.5466   -2.6973    0.0000 O   0  0  0  0  0  2  0  0  0  0  0  0
    1.5456   -3.3000    0.0000 C   0  0  0  0  0  4  0  0  0  0  0  0
    2.1177   -3.8945    0.0000 C   0  0  0  0  0  4  0  0  0  0  0  0
    2.9185   -3.6963    0.0000 C   0  0  0  0  0  4  0  0  0  0  0  0
    3.4906   -4.2908    0.0000 C   0  0  0  0  0  4  0  0  0  0  0  0
    3.2617   -5.0834    0.0000 C   0  0  0  0  0  4  0  0  0  0  0  0
    2.4609   -5.2816    0.0000 C   0  0  0  0  0  4  0  0  0  0  0  0
    1.8889   -4.6871    0.0000 C   0  0  0  0  0  4  0  0  0  0  0  0
    3.8338   -5.6779    0.0000 Cl  0  0  0  0  0  1  0  0  0  0  0  0
  1  2  1  0  0  0  0 
  2  3  1  0  0  0  0 
  3  4  1  0  0  0  0 
  4  5  1  0  0  0  0 
  4  6  1  0  0  0  0 
  2  7  1  0  0  0  0 
  7  8  1  0  0  0  0 
  7  9  1  0  0  0  0 
  7 10  1  0  0  0  0 
 10 11  1  0  0  0  0 
 11 12  2  0  0  0  0 
 12 13  1  0  0  0  0 
 13 14  2  0  0  0  0 
 14 15  1  0  0  0  0 
 15 16  2  0  0  0  0 
 11 16  1  0  0  0  0 
 14 17  1  0  0  0  0 
M  CHG  1   4   1
M  END
> <Mol Weight>
255.784

> <Formula>
C14H22ClNO

> <CdId>
134

> <RCDK_LipinskiFailures>
0

> <source>
FDA

> <name>
Clobutinol

> <ABUNDANCE>
100% at pH 4.8

> <BLABBER_CHARGE>
1

> <inchi>
1S/C14H22ClNO/c1-11(10-16(3)4)14(2,17)9-12-5-7-13(15)8-6-12/h5-8,11,17H,9-10H2,1-4H3

> <activity>
0

$$$$

  CDK     0331111707

 13 14  0  0  0  0  0  0  0  0999 V2000
    1.4289    0.8250    0.0000 O   0  0  0  0  0  2  0  0  0  0  0  0
    1.4289    0.0000    0.0000 C   0  0  0  0  0  4  0  0  0  0  0  0
    2.1434   -0.4125    0.0000 C   0  0  0  0  0  4  0  0  0  0  0  0
    2.8579    0.0000    0.0000 N   0  0  0  0  0  3  0  0  0  0  0  0
    3.5724   -0.4125    0.0000 C   0  0  0  0  0  4  0  0  0  0  0  0
    3.5724   -1.2375    0.0000 C   0  0  0  0  0  4  0  0  0  0  0  0
    2.8579   -1.6500    0.0000 C   0  0  0  0  0  4  0  0  0  0  0  0
    2.1434   -1.2375    0.0000 C   0  0  0  0  0  4  0  0  0  0  0  0
    1.4289   -1.6500    0.0000 C   0  0  0  0  0  4  0  0  0  0  0  0
    0.7145   -1.2375    0.0000 C   0  0  0  0  0  4  0  0  0  0  0  0
    0.7145   -0.4125    0.0000 C   0  0  0  0  0  4  0  0  0  0  0  0
    0.0000   -0.0000    0.0000 I   0  0  0  0  0  1  0  0  0  0  0  0
    1.4289   -2.4750    0.0000 Cl  0  0  0  0  0  1  0  0  0  0  0  0
  1  2  1  0  0  0  0 
  2  3  2  0  0  0  0 
  3  4  1  0  0  0  0 
  4  5  2  0  0  0  0 
  5  6  1  0  0  0  0 
  6  7  2  0  0  0  0 
  7  8  1  0  0  0  0 
  3  8  1  0  0  0  0 
  8  9  2  0  0  0  0 
  9 10  1  0  0  0  0 
 10 11  2  0  0  0  0 
  2 11  1  0  0  0  0 
 11 12  1  0  0  0  0 
  9 13  1  0  0  0  0 
M  END
> <Mol Weight>
305.5

> <Formula>
C9H5ClINO

> <CdId>
133

> <RCDK_LipinskiFailures>
0

> <source>
FDA

> <name>
Clioquinol

> <ABUNDANCE>
99.57% at pH 4.8

> <BLABBER_CHARGE>


> <inchi>
1S/C9H5ClINO/c10-6-4-7(11)9(13)8-5(6)2-1-3-12-8/h1-4,13H

> <activity>
0

$$$$

  CDK     0331111707

 14 15  0  0  0  0  0  0  0  0999 V2000
    4.0094    2.0593    0.0000 O   0  0  0  0  0  2  0  0  0  0  0  0
    3.1844    2.0593    0.0000 C   0  0  0  0  0  4  0  0  0  0  0  0
    2.7719    1.3448    0.0000 C   0  0  0  0  0  4  0  0  0  0  0  0
    1.9469    1.3448    0.0000 C   0  0  0  0  0  4  0  0  0  0  0  0
    1.4620    0.6773    0.0000 O   0  0  0  0  0  2  0  0  0  0  0  0
    0.6773    0.9323    0.0000 C   0  0  0  0  0  4  0  0  0  0  0  0
   -0.1477    0.9323    0.0000 C   0  0  0  0  0  4  0  0  0  0  0  0
   -0.1477    1.7573    0.0000 C   0  0  0  0  0  4  0  0  0  0  0  0
   -0.7310    2.3406    0.0000 O   0  0  0  0  0  2  0  0  0  0  0  0
    0.6773    1.7573    0.0000 N   0  0  0  0  0  3  0  0  0  0  0  0
    1.4620    2.0122    0.0000 C   0  0  0  0  0  4  0  0  0  0  0  0
    1.7169    2.7968    0.0000 C   0  0  0  0  0  4  0  0  0  0  0  0
    2.5239    2.9684    0.0000 O   0  0  0  0  0  2  0  0  0  0  0  0
    1.1649    3.4099    0.0000 O   0  0  0  0  0  1  0  0  0  0  0  0
  1  2  1  0  0  0  0 
  3  2  1  4  0  0  0 
  3  4  2  0  0  0  0 
  4  5  1  0  0  0  0 
  5  6  1  0  0  0  0 
  6  7  1  0  0  0  0 
  7  8  1  0  0  0  0 
  8  9  2  0  0  0  0 
  8 10  1  0  0  0  0 
  6 10  1  0  0  0  0 
 10 11  1  0  0  0  0 
  4 11  1  0  0  0  0 
 11 12  1  0  0  0  0 
 12 13  2  0  0  0  0 
 12 14  1  0  0  0  0 
M  CHG  1  14  -1
M  END
> <Mol Weight>
199.1608

> <Formula>
C8H9NO5

> <CdId>
131

> <RCDK_LipinskiFailures>
0

> <source>
FDA

> <name>
Clavulanic acid

> <ABUNDANCE>
97.8% at pH 4.8

> <BLABBER_CHARGE>
-1

> <inchi>
1S/C8H9NO5/c10-2-1-4-7(8(12)13)9-5(11)3-6(9)14-4/h1,6-7,10H,2-3H2,(H,12,13)/b4-1-

> <activity>
0

$$$$

  CDK     0331111707

 18 19  0  0  0  0  0  0  0  0999 V2000
    3.1599   -0.1743    0.0000 C   0  0  0  0  0  4  0  0  0  0  0  0
    3.9849   -0.1743    0.0000 C   0  0  0  0  0  4  0  0  0  0  0  0
    4.8099   -0.1743    0.0000 C   0  0  0  0  0  4  0  0  0  0  0  0
    3.9849    0.6507    0.0000 O   0  0  0  0  0  2  0  0  0  0  0  0
    3.2704    1.0632    0.0000 C   0  0  0  0  0  4  0  0  0  0  0  0
    2.5559    0.6507    0.0000 C   0  0  0  0  0  4  0  0  0  0  0  0
    1.8414    1.0632    0.0000 C   0  0  0  0  0  4  0  0  0  0  0  0
    1.8414    1.8882    0.0000 C   0  0  0  0  0  4  0  0  0  0  0  0
    2.5559    2.3007    0.0000 C   0  0  0  0  0  4  0  0  0  0  0  0
    3.2704    1.8882    0.0000 C   0  0  0  0  0  4  0  0  0  0  0  0
    1.1270    2.3007    0.0000 C   0  0  0  0  0  4  0  0  0  0  0  0
    0.3020    2.3007    0.0000 C   0  0  0  0  0  4  0  0  0  0  0  0
    0.7145    3.0151    0.0000 C   0  0  0  0  0  4  0  0  0  0  0  0
    0.2413    3.6909    0.0000 Cl  0  0  0  0  0  1  0  0  0  0  0  0
    1.1877    3.6909    0.0000 Cl  0  0  0  0  0  1  0  0  0  0  0  0
    3.9849   -0.9993    0.0000 C   0  0  0  0  0  4  0  0  0  0  0  0
    4.6993   -1.4118    0.0000 O   0  0  0  0  0  2  0  0  0  0  0  0
    3.2704   -1.4118    0.0000 O   0  0  0  0  0  1  0  0  0  0  0  0
  1  2  1  0  0  0  0 
  2  3  1  0  0  0  0 
  2  4  1  0  0  0  0 
  4  5  1  0  0  0  0 
  5  6  2  0  0  0  0 
  6  7  1  0  0  0  0 
  7  8  2  0  0  0  0 
  8  9  1  0  0  0  0 
  9 10  2  0  0  0  0 
  5 10  1  0  0  0  0 
  8 11  1  0  0  0  0 
 11 12  1  0  0  0  0 
 12 13  1  0  0  0  0 
 11 13  1  0  0  0  0 
 13 14  1  0  0  0  0 
 13 15  1  0  0  0  0 
  2 16  1  0  0  0  0 
 16 17  2  0  0  0  0 
 16 18  1  0  0  0  0 
M  CHG  1  18  -1
M  END
> <Mol Weight>
289.154

> <Formula>
C13H14Cl2O3

> <CdId>
128

> <RCDK_LipinskiFailures>
0

> <source>
BYLER

> <name>
ciprofibrate

> <ABUNDANCE>
95.89% at pH 4.8

> <BLABBER_CHARGE>
-1

> <inchi>
1S/C13H14Cl2O3/c1-12(2,11(16)17)18-9-5-3-8(4-6-9)10-7-13(10,14)15/h3-6,10H,7H2,1-2H3,(H,16,17)

> <activity>
0

$$$$

  CDK     0331111707

 17 17  0  0  0  0  0  0  0  0999 V2000
   -1.8298   -4.7457    0.0000 C   0  0  0  0  0  4  0  0  0  0  0  0
   -2.5443   -4.3332    0.0000 N   0  0  0  0  0  3  0  0  0  0  0  0
   -2.5443   -3.5082    0.0000 C   0  0  0  0  0  4  0  0  0  0  0  0
   -3.2588   -3.0957    0.0000 N   0  0  0  0  0  3  0  0  0  0  0  0
   -3.9733   -3.5082    0.0000 C   0  0  0  0  0  4  0  0  0  0  0  0
   -4.6877   -3.9207    0.0000 N   0  0  0  0  0  3  0  0  0  0  0  0
   -1.8298   -3.0957    0.0000 N   0  0  0  0  0  3  0  0  0  0  0  0
   -1.1154   -3.5082    0.0000 C   0  0  0  0  0  4  0  0  0  0  0  0
   -0.4009   -3.0957    0.0000 C   0  0  0  0  0  4  0  0  0  0  0  0
    0.3136   -3.5082    0.0000 S   0  0  0  0  0  2  0  0  0  0  0  0
    1.0280   -3.0957    0.0000 C   0  0  0  0  0  4  0  0  0  0  0  0
    1.7425   -3.5082    0.0000 C   0  0  0  0  0  4  0  0  0  0  0  0
    2.4962   -3.1727    0.0000 N   0  0  0  0  0  4  0  0  0  0  0  0
    3.0482   -3.7858    0.0000 C   0  0  0  0  0  4  0  0  0  0  0  0
    2.6357   -4.5002    0.0000 N   0  0  0  0  0  3  0  0  0  0  0  0
    1.8287   -4.3287    0.0000 C   0  0  0  0  0  4  0  0  0  0  0  0
    1.2157   -4.8807    0.0000 C   0  0  0  0  0  4  0  0  0  0  0  0
  1  2  1  0  0  0  0 
  2  3  1  0  0  0  0 
  3  4  2  0  0  0  0 
  4  5  1  4  0  0  0 
  5  6  3  0  0  0  0 
  3  7  1  0  0  0  0 
  7  8  1  0  0  0  0 
  8  9  1  0  0  0  0 
  9 10  1  0  0  0  0 
 10 11  1  0  0  0  0 
 11 12  1  0  0  0  0 
 12 13  1  0  0  0  0 
 13 14  2  0  0  0  0 
 14 15  1  0  0  0  0 
 15 16  1  0  0  0  0 
 12 16  2  0  0  0  0 
 16 17  1  0  0  0  0 
M  CHG  1  13   1
M  END
> <Mol Weight>
252.339

> <Formula>
C10H16N6S

> <CdId>
127

> <RCDK_LipinskiFailures>
0

> <source>
FDA

> <name>
Cimetidine

> <ABUNDANCE>
97.8% at pH 4.8

> <BLABBER_CHARGE>
1

> <CHECK TAUTOMER>
Multiple tautomers in input structure. Results could be inaccurate.

> <inchi>
1S/C10H16N6S/c1-8-9(16-7-15-8)5-17-4-3-13-10(12-2)14-6-11/h7H,3-5H2,1-2H3,(H,15,16)(H2,12,13,14)

> <activity>
0

$$$$

  CDK     0331111707

 33 36  0  0  0  0  0  0  0  0999 V2000
    5.7158    2.4750    0.0000 C   0  0  0  0  0  4  0  0  0  0  0  0
    5.0013    2.0625    0.0000 N   0  0  0  0  0  4  0  0  0  0  0  0
    4.2868    2.4750    0.0000 C   0  0  0  0  0  4  0  0  0  0  0  0
    5.0013    1.2375    0.0000 C   0  0  0  0  0  4  0  0  0  0  0  0
    4.2868    0.8250    0.0000 C   0  0  0  0  0  4  0  0  0  0  0  0
    3.5724    1.2375    0.0000 C   0  0  0  0  0  4  0  0  0  0  0  0
    2.8579    0.8250    0.0000 C   0  0  0  0  0  4  0  0  0  0  0  0
    2.8579    0.0000    0.0000 C   0  0  0  0  0  4  0  0  0  0  0  0
    3.5724   -0.4125    0.0000 C   0  0  0  0  0  4  0  0  0  0  0  0
    3.5724   -1.2375    0.0000 O   0  0  0  0  0  1  0  0  0  0  0  0
    4.2868    0.0000    0.0000 C   0  0  0  0  0  4  0  0  0  0  0  0
    4.2868   -0.8250    0.0000 O   0  0  0  0  0  2  0  0  0  0  0  0
    5.0013   -0.4125    0.0000 C   0  0  0  0  0  4  0  0  0  0  0  0
    5.0013   -1.2375    0.0000 O   0  0  0  0  0  2  0  0  0  0  0  0
    5.7158   -0.0000    0.0000 C   0  0  0  0  0  4  0  0  0  0  0  0
    5.7158    0.8250    0.0000 C   0  0  0  0  0  4  0  0  0  0  0  0
    6.4302    1.2375    0.0000 O   0  0  0  0  0  1  0  0  0  0  0  0
    6.4302   -0.4125    0.0000 C   0  0  0  0  0  4  0  0  0  0  0  0
    7.1447   -0.0000    0.0000 O   0  0  0  0  0  2  0  0  0  0  0  0
    6.4302   -1.2375    0.0000 N   0  0  0  0  0  3  0  0  0  0  0  0
    2.1434   -0.4125    0.0000 C   0  0  0  0  0  4  0  0  0  0  0  0
    2.1434   -1.2375    0.0000 O   0  0  0  0  0  2  0  0  0  0  0  0
    1.4289   -0.0000    0.0000 C   0  0  0  0  0  4  0  0  0  0  0  0
    0.7145   -0.4125    0.0000 C   0  0  0  0  0  4  0  0  0  0  0  0
    0.7145   -1.2375    0.0000 O   0  0  0  0  0  2  0  0  0  0  0  0
   -0.0000    0.0000    0.0000 C   0  0  0  0  0  4  0  0  0  0  0  0
    0.0000    0.8250    0.0000 C   0  0  0  0  0  4  0  0  0  0  0  0
    0.7145    1.2375    0.0000 C   0  0  0  0  0  4  0  0  0  0  0  0
    0.7145    2.0625    0.0000 Cl  0  0  0  0  0  1  0  0  0  0  0  0
    1.4289    0.8250    0.0000 C   0  0  0  0  0  4  0  0  0  0  0  0
    2.1434    1.2375    0.0000 C   0  0  0  0  0  4  0  0  0  0  0  0
    1.7561    1.9659    0.0000 C   0  0  0  0  0  4  0  0  0  0  0  0
    2.5307    1.9659    0.0000 O   0  0  0  0  0  2  0  0  0  0  0  0
  1  2  1  0  0  0  0 
  2  3  1  0  0  0  0 
  2  4  1  0  0  0  0 
  4  5  1  0  0  0  0 
  5  6  1  0  0  0  0 
  6  7  1  0  0  0  0 
  7  8  1  0  0  0  0 
  8  9  2  0  0  0  0 
  9 10  1  0  0  0  0 
  9 11  1  0  0  0  0 
  5 11  1  0  0  0  0 
 11 12  1  0  0  0  0 
 11 13  1  0  0  0  0 
 13 14  2  0  0  0  0 
 13 15  1  0  0  0  0 
 15 16  2  0  0  0  0 
  4 16  1  0  0  0  0 
 16 17  1  0  0  0  0 
 15 18  1  0  0  0  0 
 18 19  2  0  0  0  0 
 18 20  1  0  0  0  0 
  8 21  1  0  0  0  0 
 21 22  2  0  0  0  0 
 21 23  1  0  0  0  0 
 23 24  2  0  0  0  0 
 24 25  1  0  0  0  0 
 24 26  1  0  0  0  0 
 26 27  2  0  0  0  0 
 27 28  1  0  0  0  0 
 28 29  1  0  0  0  0 
 28 30  2  0  0  0  0 
 23 30  1  0  0  0  0 
 30 31  1  0  0  0  0 
  7 31  1  0  0  0  0 
 31 32  1  0  0  0  0 
 31 33  1  0  0  0  0 
M  CHG  1   2   1
M  CHG  1  10  -1
M  CHG  1  17  -1
M  END
> <Mol Weight>
478.88

> <Formula>
C22H23ClN2O8

> <CdId>
125

> <RCDK_LipinskiFailures>
0

> <source>
BYLER

> <name>
chlortetracycline

> <ABUNDANCE>
49.77% at pH 4.8

> <BLABBER_CHARGE>
-1

> <inchi>
1S/C22H23ClN2O8/c1-21(32)7-6-8-15(25(2)3)17(28)13(20(24)31)19(30)22(8,33)18(29)11(7)16(27)12-10(26)5-4-9(23)14(12)21/h4-5,7-8,15,26,28-29,32-33H,6H2,1-3H3,(H2,24,31)

> <activity>
0

$$$$

  CDK     0331111707

 17 17  0  0  0  0  0  0  0  0999 V2000
   -3.5724   -2.8875    0.0000 C   0  0  0  0  0  4  0  0  0  0  0  0
   -2.8579   -2.4750    0.0000 C   0  0  0  0  0  4  0  0  0  0  0  0
   -2.1434   -2.8875    0.0000 C   0  0  0  0  0  4  0  0  0  0  0  0
   -1.4289   -2.4750    0.0000 N   0  0  0  0  0  3  0  0  0  0  0  0
   -0.7145   -2.8875    0.0000 C   0  0  0  0  0  4  0  0  0  0  0  0
   -0.7145   -3.7125    0.0000 O   0  0  0  0  0  2  0  0  0  0  0  0
    0.0000   -2.4750    0.0000 N   0  0  0  0  0  3  0  0  0  0  0  0
    0.7145   -2.8875    0.0000 S   0  0  0  0  0  6  0  0  0  0  0  0
    0.3020   -3.6020    0.0000 O   0  0  0  0  0  2  0  0  0  0  0  0
    1.1270   -2.1730    0.0000 O   0  0  0  0  0  2  0  0  0  0  0  0
    1.4289   -3.3000    0.0000 C   0  0  0  0  0  4  0  0  0  0  0  0
    2.1434   -2.8875    0.0000 C   0  0  0  0  0  4  0  0  0  0  0  0
    2.8579   -3.3000    0.0000 C   0  0  0  0  0  4  0  0  0  0  0  0
    2.8579   -4.1250    0.0000 C   0  0  0  0  0  4  0  0  0  0  0  0
    2.1434   -4.5375    0.0000 C   0  0  0  0  0  4  0  0  0  0  0  0
    1.4289   -4.1250    0.0000 C   0  0  0  0  0  4  0  0  0  0  0  0
    3.5724   -4.5375    0.0000 Cl  0  0  0  0  0  1  0  0  0  0  0  0
  1  2  1  0  0  0  0 
  2  3  1  0  0  0  0 
  3  4  1  0  0  0  0 
  4  5  1  0  0  0  0 
  5  6  2  0  0  0  0 
  5  7  1  0  0  0  0 
  7  8  1  0  0  0  0 
  8  9  2  0  0  0  0 
  8 10  2  0  0  0  0 
  8 11  1  0  0  0  0 
 11 12  2  0  0  0  0 
 12 13  1  0  0  0  0 
 13 14  2  0  0  0  0 
 14 15  1  0  0  0  0 
 15 16  2  0  0  0  0 
 11 16  1  0  0  0  0 
 14 17  1  0  0  0  0 
M  END
> <Mol Weight>
276.74

> <Formula>
C10H13ClN2O3S

> <CdId>
124

> <RCDK_LipinskiFailures>
0

> <source>
FDA

> <name>
Chlorpropamide

> <ABUNDANCE>
55.17% at pH 4.8

> <BLABBER_CHARGE>


> <inchi>
1S/C10H13ClN2O3S/c1-2-7-12-10(14)13-17(15,16)9-5-3-8(11)4-6-9/h3-6H,2,7H2,1H3,(H2,12,13,14)

> <activity>
0

$$$$

  CDK     0331111707

 13 14  0  0  0  0  0  0  0  0999 V2000
    1.4289   -2.4750    0.0000 O   0  0  0  0  0  2  0  0  0  0  0  0
    1.4289   -1.6500    0.0000 C   0  0  0  0  0  4  0  0  0  0  0  0
    0.7145   -1.2375    0.0000 C   0  0  0  0  0  4  0  0  0  0  0  0
    0.7145   -0.4125    0.0000 C   0  0  0  0  0  4  0  0  0  0  0  0
    1.4289    0.0000    0.0000 C   0  0  0  0  0  4  0  0  0  0  0  0
    2.1434   -0.4125    0.0000 C   0  0  0  0  0  4  0  0  0  0  0  0
    2.8579    0.0000    0.0000 C   0  0  0  0  0  4  0  0  0  0  0  0
    3.5724   -0.4125    0.0000 C   0  0  0  0  0  4  0  0  0  0  0  0
    3.5724   -1.2375    0.0000 C   0  0  0  0  0  4  0  0  0  0  0  0
    2.8579   -1.6500    0.0000 N   0  0  0  0  0  3  0  0  0  0  0  0
    2.1434   -1.2375    0.0000 C   0  0  0  0  0  4  0  0  0  0  0  0
    1.4289    0.8250    0.0000 Cl  0  0  0  0  0  1  0  0  0  0  0  0
    0.0000   -1.6500    0.0000 Cl  0  0  0  0  0  1  0  0  0  0  0  0
  1  2  1  0  0  0  0 
  2  3  2  0  0  0  0 
  3  4  1  0  0  0  0 
  4  5  2  0  0  0  0 
  5  6  1  0  0  0  0 
  6  7  2  0  0  0  0 
  7  8  1  0  0  0  0 
  8  9  2  0  0  0  0 
  9 10  1  0  0  0  0 
 10 11  2  0  0  0  0 
  2 11  1  0  0  0  0 
  6 11  1  0  0  0  0 
  5 12  1  0  0  0  0 
  3 13  1  0  0  0  0 
M  END
> <Mol Weight>
214.048

> <Formula>
C9H5Cl2NO

> <CdId>
121

> <RCDK_LipinskiFailures>
0

> <source>
FDA

> <name>
Chloroxine

> <ABUNDANCE>
99.45% at pH 4.8

> <BLABBER_CHARGE>


> <inchi>
1S/C9H5Cl2NO/c10-6-4-7(11)9(13)8-5(6)2-1-3-12-8/h1-4,13H

> <activity>
0

$$$$

  CDK     0331111707

 17 18  0  0  0  0  0  0  0  0999 V2000
   -2.1434   -2.0625    0.0000 N   0  0  0  0  0  3  0  0  0  0  0  0
   -1.4289   -1.6500    0.0000 S   0  0  0  0  0  6  0  0  0  0  0  0
   -1.0164   -2.3645    0.0000 O   0  0  0  0  0  2  0  0  0  0  0  0
   -1.8414   -0.9355    0.0000 O   0  0  0  0  0  2  0  0  0  0  0  0
   -0.7145   -1.2375    0.0000 C   0  0  0  0  0  4  0  0  0  0  0  0
    0.0000   -1.6500    0.0000 C   0  0  0  0  0  4  0  0  0  0  0  0
    0.7145   -1.2375    0.0000 C   0  0  0  0  0  4  0  0  0  0  0  0
    0.7145   -0.4125    0.0000 C   0  0  0  0  0  4  0  0  0  0  0  0
    0.0000   -0.0000    0.0000 C   0  0  0  0  0  4  0  0  0  0  0  0
   -0.7145   -0.4125    0.0000 C   0  0  0  0  0  4  0  0  0  0  0  0
   -1.4289    0.0000    0.0000 Cl  0  0  0  0  0  1  0  0  0  0  0  0
    1.4289   -0.0000    0.0000 N   0  0  0  0  0  4  0  0  0  0  0  0
    2.1434   -0.4125    0.0000 C   0  0  0  0  0  4  0  0  0  0  0  0
    2.1434   -1.2375    0.0000 N   0  0  0  0  0  3  0  0  0  0  0  0
    1.4289   -1.6500    0.0000 S   0  0  0  0  0  4  0  0  0  0  0  0
    1.8163   -2.3784    0.0000 O   0  0  0  0  0  2  0  0  0  0  0  0
    1.0416   -2.3784    0.0000 O   0  0  0  0  0  2  0  0  0  0  0  0
  1  2  1  0  0  0  0 
  2  3  2  0  0  0  0 
  2  4  2  0  0  0  0 
  2  5  1  0  0  0  0 
  5  6  1  0  0  0  0 
  6  7  1  0  0  0  0 
  7  8  1  0  0  0  0 
  8  9  1  0  0  0  0 
  9 10  1  0  0  0  0 
  5 10  1  0  0  0  0 
 10 11  1  0  0  0  0 
  8 12  1  0  0  0  0 
 12 13  2  0  0  0  0 
 13 14  1  0  0  0  0 
 14 15  1  0  0  0  0 
  7 15  1  0  0  0  0 
 15 16  1  0  0  0  0 
 15 17  1  0  0  0  0 
M  CHG  1  12   1
M  END
> <Mol Weight>
297.739

> <Formula>
C7H8ClN3O4S2

> <CdId>
120

> <RCDK_LipinskiFailures>
0

> <source>
FDA

> <name>
Chlorothiazide

> <ABUNDANCE>
53.94% at pH 4.8

> <BLABBER_CHARGE>
1

> <inchi>
1S/C7H8ClN3O4S2/c8-4-1-5-7(2-6(4)16(9,12)13)17(14,15)11-3-10-5/h1-3,14-15H,(H,10,11)(H2,9,12,13)

> <activity>
0

$$$$

  CDK     0331111707

  4  3  0  0  0  0  0  0  0  0999 V2000
    1.2375    0.7145    0.0000 Cl  0  0  0  0  0  1  0  0  0  0  0  0
    0.8250    0.0000    0.0000 C   0  0  0  0  0  4  0  0  0  0  0  0
    1.2375   -0.7145    0.0000 Cl  0  0  0  0  0  1  0  0  0  0  0  0
    0.0000    0.0000    0.0000 Cl  0  0  0  0  0  1  0  0  0  0  0  0
  1  2  1  0  0  0  0 
  2  3  1  0  0  0  0 
  2  4  1  0  0  0  0 
M  END
> <Mol Weight>
119.378

> <Formula>
CHCl3

> <CdId>
117

> <RCDK_LipinskiFailures>
0

> <source>
BYLER

> <name>
chloroform

> <ABUNDANCE>
No species found

> <BLABBER_CHARGE>


> <inchi>
1S/CHCl3/c2-1(3)4/h1H

> <activity>
0

$$$$

  CDK     0331111707

 28 31  0  0  0  0  0  0  0  0999 V2000
    0.9122   -2.1492    0.0000 C   0  0  0  0  0  4  0  0  0  0  0  0
    1.7243   -2.0040    0.0000 C   0  0  0  0  0  4  0  0  0  0  0  0
    2.0046   -1.2281    0.0000 O   0  0  0  0  0  2  0  0  0  0  0  0
    2.2561   -2.6347    0.0000 O   0  0  0  0  0  2  0  0  0  0  0  0
    3.0683   -2.4895    0.0000 C   0  0  0  0  0  4  0  0  0  0  0  0
    2.8390   -1.6970    0.0000 C   0  0  0  0  0  4  0  0  0  0  0  0
    3.5218   -1.2340    0.0000 C   0  0  0  0  0  4  0  0  0  0  0  0
    4.1731   -1.7404    0.0000 C   0  0  0  0  0  4  0  0  0  0  0  0
    4.9853   -1.5952    0.0000 C   0  0  0  0  0  4  0  0  0  0  0  0
    5.2655   -0.8192    0.0000 C   0  0  0  0  0  4  0  0  0  0  0  0
    6.0777   -0.6740    0.0000 C   0  0  0  0  0  4  0  0  0  0  0  0
    6.6095   -1.3047    0.0000 C   0  0  0  0  0  4  0  0  0  0  0  0
    7.4216   -1.1595    0.0000 C   0  0  0  0  0  4  0  0  0  0  0  0
    7.9534   -1.7902    0.0000 C   0  0  0  0  0  4  0  0  0  0  0  0
    8.7655   -1.6450    0.0000 O   0  0  0  0  0  2  0  0  0  0  0  0
    7.6731   -2.5662    0.0000 C   0  0  0  0  0  4  0  0  0  0  0  0
    6.8610   -2.7114    0.0000 C   0  0  0  0  0  4  0  0  0  0  0  0
    6.3292   -2.0807    0.0000 C   0  0  0  0  0  4  0  0  0  0  0  0
    6.0489   -2.8566    0.0000 C   0  0  0  0  0  4  0  0  0  0  0  0
    5.5171   -2.2259    0.0000 C   0  0  0  0  0  4  0  0  0  0  0  0
    5.2368   -3.0018    0.0000 C   0  0  0  0  0  4  0  0  0  0  0  0
    4.4247   -3.1470    0.0000 C   0  0  0  0  0  4  0  0  0  0  0  0
    3.8928   -2.5163    0.0000 C   0  0  0  0  0  4  0  0  0  0  0  0
    3.5330   -3.2587    0.0000 C   0  0  0  0  0  4  0  0  0  0  0  0
    6.3580    0.1019    0.0000 Cl  0  0  0  0  0  1  0  0  0  0  0  0
    3.1278   -3.3123    0.0000 C   0  0  0  0  0  4  0  0  0  0  0  0
    3.8702   -3.6722    0.0000 C   0  0  0  0  0  4  0  0  0  0  0  0
    2.4450   -3.7753    0.0000 O   0  0  0  0  0  2  0  0  0  0  0  0
  1  2  1  0  0  0  0 
  2  3  2  0  0  0  0 
  2  4  1  0  0  0  0 
  4  5  1  0  0  0  0 
  5  6  1  0  0  0  0 
  6  7  1  0  0  0  0 
  7  8  1  0  0  0  0 
  8  9  1  0  0  0  0 
  9 10  1  0  0  0  0 
 10 11  2  0  0  0  0 
 11 12  1  0  0  0  0 
 12 13  2  0  0  0  0 
 13 14  1  0  0  0  0 
 14 15  2  0  0  0  0 
 14 16  1  0  0  0  0 
 16 17  1  0  0  0  0 
 17 18  1  0  0  0  0 
 12 18  1  0  0  0  0 
 18 19  1  0  0  0  0 
 18 20  1  0  0  0  0 
  9 20  1  0  0  0  0 
 20 21  1  0  0  0  0 
 21 22  1  0  0  0  0 
 22 23  1  0  0  0  0 
  8 23  1  0  0  0  0 
  5 23  1  0  0  0  0 
 23 24  1  0  0  0  0 
 11 25  1  0  0  0  0 
  5 26  1  0  0  0  0 
 26 27  1  0  0  0  0 
 26 28  2  0  0  0  0 
M  END
> <Mol Weight>
404.927

> <Formula>
C23H29ClO4

> <CdId>
114

> <RCDK_LipinskiFailures>
0

> <source>
FDA

> <name>
Chlormadinone acetate

> <ABUNDANCE>
No species found

> <BLABBER_CHARGE>


> <inchi>
1S/C23H29ClO4/c1-13(25)23(28-14(2)26)10-7-18-16-12-20(24)19-11-15(27)5-8-21(19,3)17(16)6-9-22(18,23)4/h11-12,16-18H,5-10H2,1-4H3

> <activity>
0

$$$$

  CDK     0331111707

 25 28  0  0  0  0  0  0  0  0999 V2000
    1.7243   -2.0040    0.0000 C   0  0  0  0  0  4  0  0  0  0  0  0
    2.2561   -2.6347    0.0000 C   0  0  0  0  0  4  0  0  0  0  0  0
    1.9758   -3.4106    0.0000 O   0  0  0  0  0  2  0  0  0  0  0  0
    3.0683   -2.4895    0.0000 C   0  0  0  0  0  4  0  0  0  0  0  0
    3.1278   -3.3123    0.0000 O   0  0  0  0  0  2  0  0  0  0  0  0
    2.8390   -1.6970    0.0000 C   0  0  0  0  0  4  0  0  0  0  0  0
    3.5218   -1.2340    0.0000 C   0  0  0  0  0  4  0  0  0  0  0  0
    4.1731   -1.7404    0.0000 C   0  0  0  0  0  4  0  0  0  0  0  0
    4.9853   -1.5952    0.0000 C   0  0  0  0  0  4  0  0  0  0  0  0
    5.2655   -0.8192    0.0000 C   0  0  0  0  0  4  0  0  0  0  0  0
    6.0777   -0.6740    0.0000 C   0  0  0  0  0  4  0  0  0  0  0  0
    6.6095   -1.3047    0.0000 C   0  0  0  0  0  4  0  0  0  0  0  0
    7.4216   -1.1595    0.0000 C   0  0  0  0  0  4  0  0  0  0  0  0
    7.9534   -1.7902    0.0000 C   0  0  0  0  0  4  0  0  0  0  0  0
    8.7655   -1.6450    0.0000 O   0  0  0  0  0  2  0  0  0  0  0  0
    7.6731   -2.5662    0.0000 C   0  0  0  0  0  4  0  0  0  0  0  0
    6.8610   -2.7114    0.0000 C   0  0  0  0  0  4  0  0  0  0  0  0
    6.3292   -2.0807    0.0000 C   0  0  0  0  0  4  0  0  0  0  0  0
    6.0489   -2.8566    0.0000 C   0  0  0  0  0  4  0  0  0  0  0  0
    5.5171   -2.2259    0.0000 C   0  0  0  0  0  4  0  0  0  0  0  0
    5.2368   -3.0018    0.0000 C   0  0  0  0  0  4  0  0  0  0  0  0
    4.4247   -3.1470    0.0000 C   0  0  0  0  0  4  0  0  0  0  0  0
    3.8928   -2.5163    0.0000 C   0  0  0  0  0  4  0  0  0  0  0  0
    3.5330   -3.2587    0.0000 C   0  0  0  0  0  4  0  0  0  0  0  0
    6.3580    0.1019    0.0000 Cl  0  0  0  0  0  1  0  0  0  0  0  0
  1  2  1  0  0  0  0 
  2  3  2  0  0  0  0 
  2  4  1  0  0  0  0 
  4  5  1  0  0  0  0 
  4  6  1  0  0  0  0 
  6  7  1  0  0  0  0 
  7  8  1  0  0  0  0 
  8  9  1  0  0  0  0 
  9 10  1  0  0  0  0 
 10 11  2  0  0  0  0 
 11 12  1  0  0  0  0 
 12 13  2  0  0  0  0 
 13 14  1  0  0  0  0 
 14 15  2  0  0  0  0 
 14 16  1  0  0  0  0 
 16 17  1  0  0  0  0 
 17 18  1  0  0  0  0 
 12 18  1  0  0  0  0 
 18 19  1  0  0  0  0 
 18 20  1  0  0  0  0 
  9 20  1  0  0  0  0 
 20 21  1  0  0  0  0 
 21 22  1  0  0  0  0 
 22 23  1  0  0  0  0 
  8 23  1  0  0  0  0 
  4 23  1  0  0  0  0 
 23 24  1  0  0  0  0 
 11 25  1  0  0  0  0 
M  END
> <Mol Weight>
362.89

> <Formula>
C21H27ClO3

> <CdId>
113

> <RCDK_LipinskiFailures>
0

> <source>
FDA

> <name>
Chlormadinone

> <ABUNDANCE>
100% at pH 4.8

> <BLABBER_CHARGE>


> <inchi>
1S/C21H27ClO3/c1-12(23)21(25)9-6-16-14-11-18(22)17-10-13(24)4-7-19(17,2)15(14)5-8-20(16,21)3/h10-11,14-16,25H,4-9H2,1-3H3

> <activity>
0

$$$$

  CDK     0331111707

 28 30  0  0  0  0  0  0  0  0999 V2000
    4.5483    4.2760    0.0000 C   0  0  0  0  0  4  0  0  0  0  0  0
    4.5483    3.4510    0.0000 C   0  0  0  0  0  4  0  0  0  0  0  0
    5.2628    3.0385    0.0000 O   0  0  0  0  0  2  0  0  0  0  0  0
    3.8339    3.0385    0.0000 O   0  0  0  0  0  2  0  0  0  0  0  0
    3.8339    2.2135    0.0000 C   0  0  0  0  0  4  0  0  0  0  0  0
    3.1194    1.8010    0.0000 C   0  0  0  0  0  4  0  0  0  0  0  0
    3.1194    0.9760    0.0000 C   0  0  0  0  0  4  0  0  0  0  0  0
    2.4049    0.5635    0.0000 S   0  0  0  0  0  2  0  0  0  0  0  0
    1.6905    0.9760    0.0000 C   0  0  0  0  0  4  0  0  0  0  0  0
    0.8655    0.9760    0.0000 C   0  0  0  0  0  4  0  0  0  0  0  0
    0.2821    0.3926    0.0000 N   0  0  0  0  0  3  0  0  0  0  0  0
   -0.5148    0.6061    0.0000 C   0  0  0  0  0  4  0  0  0  0  0  0
   -0.7283    1.4030    0.0000 O   0  0  0  0  0  2  0  0  0  0  0  0
   -1.0982    0.0228    0.0000 C   0  0  0  0  0  4  0  0  0  0  0  0
   -0.8846   -0.7741    0.0000 N   0  0  0  0  0  4  0  0  0  0  0  0
   -1.8950    0.2363    0.0000 C   0  0  0  0  0  4  0  0  0  0  0  0
   -2.4784   -0.3471    0.0000 C   0  0  0  0  0  4  0  0  0  0  0  0
   -3.2753   -0.1335    0.0000 C   0  0  0  0  0  4  0  0  0  0  0  0
   -3.4888    0.6634    0.0000 C   0  0  0  0  0  4  0  0  0  0  0  0
   -2.9055    1.2467    0.0000 C   0  0  0  0  0  4  0  0  0  0  0  0
   -2.1086    1.0332    0.0000 C   0  0  0  0  0  4  0  0  0  0  0  0
    0.8655    1.8010    0.0000 C   0  0  0  0  0  4  0  0  0  0  0  0
    0.2821    2.3843    0.0000 O   0  0  0  0  0  2  0  0  0  0  0  0
    1.6905    1.8010    0.0000 N   0  0  0  0  0  3  0  0  0  0  0  0
    2.4049    2.2135    0.0000 C   0  0  0  0  0  4  0  0  0  0  0  0
    2.4049    3.0385    0.0000 C   0  0  0  0  0  4  0  0  0  0  0  0
    3.1194    3.4510    0.0000 O   0  0  0  0  0  2  0  0  0  0  0  0
    1.6905    3.4510    0.0000 O   0  0  0  0  0  1  0  0  0  0  0  0
  1  2  1  0  0  0  0 
  2  3  2  0  0  0  0 
  2  4  1  0  0  0  0 
  4  5  1  0  0  0  0 
  5  6  1  0  0  0  0 
  6  7  1  0  0  0  0 
  7  8  1  0  0  0  0 
  8  9  1  0  0  0  0 
  9 10  1  0  0  0  0 
 10 11  1  0  0  0  0 
 11 12  1  0  0  0  0 
 12 13  2  0  0  0  0 
 12 14  1  0  0  0  0 
 14 15  1  0  0  0  0 
 14 16  1  0  0  0  0 
 16 17  2  0  0  0  0 
 17 18  1  0  0  0  0 
 18 19  2  0  0  0  0 
 19 20  1  0  0  0  0 
 20 21  2  0  0  0  0 
 16 21  1  0  0  0  0 
 10 22  1  0  0  0  0 
 22 23  2  0  0  0  0 
 22 24  1  0  0  0  0 
  9 24  1  0  0  0  0 
 24 25  1  0  0  0  0 
  6 25  2  0  0  0  0 
 25 26  1  0  0  0  0 
 26 27  2  0  0  0  0 
 26 28  1  0  0  0  0 
M  CHG  1  15   1
M  CHG  1  28  -1
M  END
> <Mol Weight>
405.425

> <Formula>
C18H19N3O6S

> <CdId>
109

> <RCDK_LipinskiFailures>
0

> <source>
FDA

> <name>
Cephaloglycin

> <ABUNDANCE>
99.22% at pH 4.8

> <BLABBER_CHARGE>
0

> <inchi>
1S/C18H19N3O6S/c1-9(22)27-7-11-8-28-17-13(16(24)21(17)14(11)18(25)26)20-15(23)12(19)10-5-3-2-4-6-10/h2-6,12-13,17H,7-8,19H2,1H3,(H,20,23)(H,25,26)

> <activity>
0

$$$$

  CDK     0331111707

 37 40  0  0  0  0  0  0  0  0999 V2000
   -4.6158   -2.8824    0.0000 C   0  0  0  0  0  4  0  0  0  0  0  0
   -4.4023   -2.0855    0.0000 C   0  0  0  0  0  4  0  0  0  0  0  0
   -4.1887   -1.2886    0.0000 C   0  0  0  0  0  4  0  0  0  0  0  0
   -5.1992   -1.8720    0.0000 C   0  0  0  0  0  4  0  0  0  0  0  0
   -5.7825   -2.4553    0.0000 O   0  0  0  0  0  2  0  0  0  0  0  0
   -5.4127   -1.0751    0.0000 O   0  0  0  0  0  1  0  0  0  0  0  0
   -3.6054   -2.2990    0.0000 O   0  0  0  0  0  2  0  0  0  0  0  0
   -3.0220   -1.7157    0.0000 N   0  0  0  0  0  3  0  0  0  0  0  0
   -2.2251   -1.9292    0.0000 C   0  0  0  0  0  4  0  0  0  0  0  0
   -2.0116   -2.7261    0.0000 C   0  0  0  0  0  4  0  0  0  0  0  0
   -1.2414   -3.0217    0.0000 C   0  0  0  0  0  4  0  0  0  0  0  0
   -1.2846   -3.8456    0.0000 S   0  0  0  0  0  2  0  0  0  0  0  0
   -2.0815   -4.0591    0.0000 C   0  0  0  0  0  4  0  0  0  0  0  0
   -2.5308   -3.3672    0.0000 N   0  0  0  0  0  3  0  0  0  0  0  0
   -2.3771   -4.8293    0.0000 N   0  0  0  0  0  3  0  0  0  0  0  0
   -1.6418   -1.3458    0.0000 C   0  0  0  0  0  4  0  0  0  0  0  0
   -1.8553   -0.5489    0.0000 O   0  0  0  0  0  2  0  0  0  0  0  0
   -0.8449   -1.5593    0.0000 N   0  0  0  0  0  3  0  0  0  0  0  0
   -0.2615   -0.9760    0.0000 C   0  0  0  0  0  4  0  0  0  0  0  0
    0.5635   -0.9760    0.0000 C   0  0  0  0  0  4  0  0  0  0  0  0
    0.5635   -0.1510    0.0000 N   0  0  0  0  0  3  0  0  0  0  0  0
   -0.2615   -0.1510    0.0000 C   0  0  0  0  0  4  0  0  0  0  0  0
   -0.8449    0.4324    0.0000 O   0  0  0  0  0  2  0  0  0  0  0  0
    1.2780    0.2615    0.0000 C   0  0  0  0  0  4  0  0  0  0  0  0
    1.9924   -0.1510    0.0000 C   0  0  0  0  0  4  0  0  0  0  0  0
    1.9924   -0.9760    0.0000 C   0  0  0  0  0  4  0  0  0  0  0  0
    1.2780   -1.3885    0.0000 S   0  0  0  0  0  2  0  0  0  0  0  0
    2.7069    0.2615    0.0000 C   0  0  0  0  0  4  0  0  0  0  0  0
    3.4214   -0.1510    0.0000 N   0  0  0  0  0  4  0  0  0  0  0  0
    4.1358    0.2615    0.0000 C   0  0  0  0  0  4  0  0  0  0  0  0
    4.8503   -0.1510    0.0000 C   0  0  0  0  0  4  0  0  0  0  0  0
    4.8503   -0.9760    0.0000 C   0  0  0  0  0  4  0  0  0  0  0  0
    4.1358   -1.3885    0.0000 C   0  0  0  0  0  4  0  0  0  0  0  0
    3.4214   -0.9760    0.0000 C   0  0  0  0  0  4  0  0  0  0  0  0
    1.2780    1.0865    0.0000 C   0  0  0  0  0  4  0  0  0  0  0  0
    1.9924    1.4990    0.0000 O   0  0  0  0  0  2  0  0  0  0  0  0
    0.5635    1.4990    0.0000 O   0  0  0  0  0  1  0  0  0  0  0  0
  1  2  1  0  0  0  0 
  2  3  1  0  0  0  0 
  2  4  1  0  0  0  0 
  4  5  2  0  0  0  0 
  4  6  1  0  0  0  0 
  2  7  1  0  0  0  0 
  8  7  1  4  0  0  0 
  8  9  2  0  0  0  0 
  9 10  1  0  0  0  0 
 10 11  2  0  0  0  0 
 11 12  1  0  0  0  0 
 12 13  1  0  0  0  0 
 13 14  2  0  0  0  0 
 10 14  1  0  0  0  0 
 13 15  1  0  0  0  0 
  9 16  1  0  0  0  0 
 16 17  2  0  0  0  0 
 16 18  1  0  0  0  0 
 18 19  1  0  0  0  0 
 19 20  1  0  0  0  0 
 20 21  1  0  0  0  0 
 21 22  1  0  0  0  0 
 19 22  1  0  0  0  0 
 22 23  2  0  0  0  0 
 21 24  1  0  0  0  0 
 24 25  2  0  0  0  0 
 25 26  1  0  0  0  0 
 26 27  1  0  0  0  0 
 20 27  1  0  0  0  0 
 25 28  1  0  0  0  0 
 28 29  1  0  0  0  0 
 29 30  2  0  0  0  0 
 30 31  1  0  0  0  0 
 31 32  2  0  0  0  0 
 32 33  1  0  0  0  0 
 33 34  2  0  0  0  0 
 29 34  1  0  0  0  0 
 24 35  1  0  0  0  0 
 35 36  2  0  0  0  0 
 35 37  1  0  0  0  0 
M  CHG  1   6  -1
M  CHG  1  29   1
M  CHG  1  37  -1
M  END
> <Mol Weight>
546.576

> <Formula>
C22H22N6O7S2

> <CdId>
106

> <RCDK_LipinskiFailures>
0

> <source>
LOWE

> <name>
Ceftazidime

> <ABUNDANCE>
97% at pH 4.8

> <BLABBER_CHARGE>
-1

> <inchi>
1S/C22H22N6O7S2/c1-22(2,20(33)34)35-26-13(12-10-37-21(23)24-12)16(29)25-14-17(30)28-15(19(31)32)11(9-36-18(14)28)8-27-6-4-3-5-7-27/h3-7,10,14,18H,8-9H2,1-2H3,(H4-,23,24,25,29,31,32,33,34)/b26-13-

> <activity>
0

$$$$

  CDK     0331111707

 37 40  0  0  0  0  0  0  0  0999 V2000
   -1.9523   -2.3853    0.0000 C   0  0  0  0  0  4  0  0  0  0  0  0
   -1.1554   -2.1718    0.0000 C   0  0  0  0  0  4  0  0  0  0  0  0
   -1.3689   -1.3749    0.0000 C   0  0  0  0  0  4  0  0  0  0  0  0
   -0.3585   -1.9583    0.0000 O   0  0  0  0  0  2  0  0  0  0  0  0
   -0.1450   -1.1614    0.0000 N   0  0  0  0  0  3  0  0  0  0  0  0
   -0.7283   -0.5780    0.0000 C   0  0  0  0  0  4  0  0  0  0  0  0
   -0.5148    0.2189    0.0000 C   0  0  0  0  0  4  0  0  0  0  0  0
   -1.0982    0.8022    0.0000 O   0  0  0  0  0  2  0  0  0  0  0  0
    0.2821    0.4324    0.0000 N   0  0  0  0  0  3  0  0  0  0  0  0
    0.8655   -0.1510    0.0000 C   0  0  0  0  0  4  0  0  0  0  0  0
    1.6905   -0.1510    0.0000 C   0  0  0  0  0  4  0  0  0  0  0  0
    2.4049    0.2615    0.0000 S   0  0  0  0  0  2  0  0  0  0  0  0
    3.1194   -0.1510    0.0000 C   0  0  0  0  0  4  0  0  0  0  0  0
    3.1194   -0.9760    0.0000 C   0  0  0  0  0  4  0  0  0  0  0  0
    2.4049   -1.3885    0.0000 C   0  0  0  0  0  4  0  0  0  0  0  0
    1.6905   -0.9760    0.0000 N   0  0  0  0  0  3  0  0  0  0  0  0
    0.8655   -0.9760    0.0000 C   0  0  0  0  0  4  0  0  0  0  0  0
    0.2821   -1.5593    0.0000 O   0  0  0  0  0  2  0  0  0  0  0  0
    2.4049   -2.2135    0.0000 C   0  0  0  0  0  4  0  0  0  0  0  0
    1.6905   -2.6260    0.0000 O   0  0  0  0  0  2  0  0  0  0  0  0
    3.1194   -2.6260    0.0000 O   0  0  0  0  0  1  0  0  0  0  0  0
    3.8339   -1.3885    0.0000 C   0  0  0  0  0  4  0  0  0  0  0  0
    4.5483   -0.9760    0.0000 N   0  0  0  0  0  4  0  0  0  0  0  0
    4.5483   -0.1510    0.0000 C   0  0  0  0  0  4  0  0  0  0  0  0
    5.2628    0.2615    0.0000 C   0  0  0  0  0  4  0  0  0  0  0  0
    5.9773   -0.1510    0.0000 C   0  0  0  0  0  4  0  0  0  0  0  0
    5.9773   -0.9760    0.0000 C   0  0  0  0  0  4  0  0  0  0  0  0
    5.2628   -1.3885    0.0000 C   0  0  0  0  0  4  0  0  0  0  0  0
   -1.5252   -0.7916    0.0000 C   0  0  0  0  0  4  0  0  0  0  0  0
   -2.1664   -0.2724    0.0000 C   0  0  0  0  0  4  0  0  0  0  0  0
   -2.8583   -0.7217    0.0000 S   0  0  0  0  0  2  0  0  0  0  0  0
   -2.6447   -1.5186    0.0000 C   0  0  0  0  0  4  0  0  0  0  0  0
   -3.1639   -2.1597    0.0000 N   0  0  0  0  0  3  0  0  0  0  0  0
   -1.8209   -1.5618    0.0000 N   0  0  0  0  0  3  0  0  0  0  0  0
   -0.9418   -2.9687    0.0000 C   0  0  0  0  0  4  0  0  0  0  0  0
   -1.5252   -3.5521    0.0000 O   0  0  0  0  0  2  0  0  0  0  0  0
   -0.1450   -3.1822    0.0000 O   0  0  0  0  0  1  0  0  0  0  0  0
  1  2  1  0  0  0  0 
  2  3  1  0  0  0  0 
  2  4  1  0  0  0  0 
  5  4  1  4  0  0  0 
  5  6  2  0  0  0  0 
  6  7  1  0  0  0  0 
  7  8  2  0  0  0  0 
  7  9  1  0  0  0  0 
  9 10  1  0  0  0  0 
 10 11  1  0  0  0  0 
 11 12  1  0  0  0  0 
 12 13  1  0  0  0  0 
 13 14  1  0  0  0  0 
 14 15  2  0  0  0  0 
 15 16  1  0  0  0  0 
 11 16  1  0  0  0  0 
 16 17  1  0  0  0  0 
 10 17  1  0  0  0  0 
 17 18  2  0  0  0  0 
 15 19  1  0  0  0  0 
 19 20  2  0  0  0  0 
 19 21  1  0  0  0  0 
 14 22  1  0  0  0  0 
 22 23  1  0  0  0  0 
 23 24  2  0  0  0  0 
 24 25  1  0  0  0  0 
 25 26  2  0  0  0  0 
 26 27  1  0  0  0  0 
 27 28  2  0  0  0  0 
 23 28  1  0  0  0  0 
  6 29  1  0  0  0  0 
 29 30  2  0  0  0  0 
 30 31  1  0  0  0  0 
 31 32  1  0  0  0  0 
 32 33  1  0  0  0  0 
 32 34  2  0  0  0  0 
 29 34  1  0  0  0  0 
  2 35  1  0  0  0  0 
 35 36  2  0  0  0  0 
 35 37  1  0  0  0  0 
M  CHG  1  21  -1
M  CHG  1  23   1
M  CHG  1  37  -1
M  END
> <Mol Weight>
547.584

> <Formula>
C22H23N6O7S2

> <CdId>
105

> <RCDK_LipinskiFailures>
0

> <source>
BYLER

> <name>
ceftazidime

> <ABUNDANCE>
97% at pH 4.8

> <BLABBER_CHARGE>
-1

> <inchi>
1S/C22H22N6O7S2/c1-22(2,20(33)34)35-26-13(12-10-37-21(23)24-12)16(29)25-14-17(30)28-15(19(31)32)11(9-36-18(14)28)8-27-6-4-3-5-7-27/h3-7,10,14,18H,8-9H2,1-2H3,(H4-,23,24,25,29,31,32,33,34)/p+1/b26-13+

> <activity>
0

$$$$

  CDK     0331111707

 30 32  0  0  0  0  0  0  0  0999 V2000
    3.8339    3.0385    0.0000 C   0  0  0  0  0  4  0  0  0  0  0  0
    3.8339    2.2135    0.0000 C   0  0  0  0  0  4  0  0  0  0  0  0
    3.1194    1.8010    0.0000 C   0  0  0  0  0  4  0  0  0  0  0  0
    3.1194    0.9760    0.0000 C   0  0  0  0  0  4  0  0  0  0  0  0
    2.4049    0.5635    0.0000 S   0  0  0  0  0  2  0  0  0  0  0  0
    1.6905    0.9760    0.0000 C   0  0  0  0  0  4  0  0  0  0  0  0
    0.8655    0.9760    0.0000 C   0  0  0  0  0  4  0  0  0  0  0  0
    0.2821    0.3926    0.0000 N   0  0  0  0  0  3  0  0  0  0  0  0
   -0.5148    0.6061    0.0000 C   0  0  0  0  0  4  0  0  0  0  0  0
   -0.7283    1.4030    0.0000 O   0  0  0  0  0  2  0  0  0  0  0  0
   -1.0982    0.0228    0.0000 C   0  0  0  0  0  4  0  0  0  0  0  0
   -1.8950    0.2363    0.0000 N   0  0  0  0  0  3  0  0  0  0  0  0
   -2.4784   -0.3471    0.0000 O   0  0  0  0  0  2  0  0  0  0  0  0
   -2.2649   -1.1439    0.0000 C   0  0  0  0  0  4  0  0  0  0  0  0
   -2.8482   -1.7273    0.0000 C   0  0  0  0  0  4  0  0  0  0  0  0
   -2.6347   -2.5242    0.0000 O   0  0  0  0  0  2  0  0  0  0  0  0
   -3.6451   -1.5138    0.0000 O   0  0  0  0  0  1  0  0  0  0  0  0
   -0.8846   -0.7741    0.0000 C   0  0  0  0  0  4  0  0  0  0  0  0
   -0.1144   -1.0698    0.0000 C   0  0  0  0  0  4  0  0  0  0  0  0
   -0.1576   -1.8936    0.0000 S   0  0  0  0  0  2  0  0  0  0  0  0
   -0.9545   -2.1072    0.0000 C   0  0  0  0  0  4  0  0  0  0  0  0
   -1.2501   -2.8774    0.0000 N   0  0  0  0  0  3  0  0  0  0  0  0
   -1.4038   -1.4152    0.0000 N   0  0  0  0  0  3  0  0  0  0  0  0
    0.8655    1.8010    0.0000 C   0  0  0  0  0  4  0  0  0  0  0  0
    0.2821    2.3843    0.0000 O   0  0  0  0  0  2  0  0  0  0  0  0
    1.6905    1.8010    0.0000 N   0  0  0  0  0  3  0  0  0  0  0  0
    2.4049    2.2135    0.0000 C   0  0  0  0  0  4  0  0  0  0  0  0
    2.4049    3.0385    0.0000 C   0  0  0  0  0  4  0  0  0  0  0  0
    3.1194    3.4510    0.0000 O   0  0  0  0  0  2  0  0  0  0  0  0
    1.6905    3.4510    0.0000 O   0  0  0  0  0  1  0  0  0  0  0  0
  1  2  2  0  0  0  0 
  2  3  1  0  0  0  0 
  3  4  1  0  0  0  0 
  4  5  1  0  0  0  0 
  5  6  1  0  0  0  0 
  6  7  1  0  0  0  0 
  7  8  1  0  0  0  0 
  8  9  1  0  0  0  0 
  9 10  2  0  0  0  0 
  9 11  1  0  0  0  0 
 11 12  2  0  0  0  0 
 12 13  1  4  0  0  0 
 13 14  1  0  0  0  0 
 14 15  1  0  0  0  0 
 15 16  2  0  0  0  0 
 15 17  1  0  0  0  0 
 11 18  1  0  0  0  0 
 18 19  2  0  0  0  0 
 19 20  1  0  0  0  0 
 20 21  1  0  0  0  0 
 21 22  1  0  0  0  0 
 21 23  2  0  0  0  0 
 18 23  1  0  0  0  0 
  7 24  1  0  0  0  0 
 24 25  2  0  0  0  0 
 24 26  1  0  0  0  0 
  6 26  1  0  0  0  0 
 26 27  1  0  0  0  0 
  3 27  2  0  0  0  0 
 27 28  1  0  0  0  0 
 28 29  2  0  0  0  0 
 28 30  1  0  0  0  0 
M  CHG  1  17  -1
M  CHG  1  30  -1
M  END
> <Mol Weight>
453.45

> <Formula>
C16H15N5O7S2

> <CdId>
102

> <RCDK_LipinskiFailures>
0

> <source>
FDA

> <name>
Cefixime

> <ABUNDANCE>
97.02% at pH 4.8

> <BLABBER_CHARGE>
-2

> <inchi>
1S/C16H15N5O7S2/c1-2-6-4-29-14-10(13(25)21(14)11(6)15(26)27)19-12(24)9(20-28-3-8(22)23)7-5-30-16(17)18-7/h2,5,10,14H,1,3-4H2,(H2,17,18)(H,19,24)(H,22,23)(H,26,27)/b20-9+

> <activity>
0

$$$$

  CDK     0331111707

 12 11  0  0  0  0  0  0  0  0999 V2000
    5.8559    0.9059    0.0000 O   0  0  0  0  0  2  0  0  0  0  0  0
    5.1414    1.3184    0.0000 N   0  0  0  0  0  3  0  0  0  0  0  0
    5.1414    2.1434    0.0000 N   0  0  0  0  0  3  0  0  0  0  0  0
    4.4270    2.5559    0.0000 C   0  0  0  0  0  4  0  0  0  0  0  0
    3.7125    2.1434    0.0000 C   0  0  0  0  0  4  0  0  0  0  0  0
    2.9980    2.5559    0.0000 Cl  0  0  0  0  0  1  0  0  0  0  0  0
    5.8559    2.5559    0.0000 C   0  0  0  0  0  4  0  0  0  0  0  0
    5.8559    3.3809    0.0000 O   0  0  0  0  0  2  0  0  0  0  0  0
    6.5704    2.1434    0.0000 N   0  0  0  0  0  3  0  0  0  0  0  0
    7.2849    2.5559    0.0000 C   0  0  0  0  0  4  0  0  0  0  0  0
    7.9993    2.1434    0.0000 C   0  0  0  0  0  4  0  0  0  0  0  0
    8.7138    2.5559    0.0000 Cl  0  0  0  0  0  1  0  0  0  0  0  0
  1  2  2  0  0  0  0 
  2  3  1  0  0  0  0 
  3  4  1  0  0  0  0 
  4  5  1  0  0  0  0 
  5  6  1  0  0  0  0 
  3  7  1  0  0  0  0 
  7  8  2  0  0  0  0 
  7  9  1  0  0  0  0 
  9 10  1  0  0  0  0 
 10 11  1  0  0  0  0 
 11 12  1  0  0  0  0 
M  END
> <Mol Weight>
214.05

> <Formula>
C5H9Cl2N3O2

> <CdId>
101

> <RCDK_LipinskiFailures>
0

> <source>
FDA

> <name>
Carmustine

> <ABUNDANCE>
100% at pH 4.8

> <BLABBER_CHARGE>


> <inchi>
1S/C5H9Cl2N3O2/c6-1-3-8-5(11)10(9-12)4-2-7/h1-4H2,(H,8,11)

> <activity>
0

$$$$

  CDK     0331111707

 18 18  0  0  0  0  0  0  0  0999 V2000
   -3.5724   -3.7125    0.0000 C   0  0  0  0  0  4  0  0  0  0  0  0
   -2.8579   -4.1250    0.0000 C   0  0  0  0  0  4  0  0  0  0  0  0
   -2.1434   -3.7125    0.0000 C   0  0  0  0  0  4  0  0  0  0  0  0
   -1.4289   -4.1250    0.0000 C   0  0  0  0  0  4  0  0  0  0  0  0
   -0.7145   -3.7125    0.0000 N   0  0  0  0  0  3  0  0  0  0  0  0
    0.0000   -4.1250    0.0000 C   0  0  0  0  0  4  0  0  0  0  0  0
    0.0000   -4.9500    0.0000 O   0  0  0  0  0  2  0  0  0  0  0  0
    0.7145   -3.7125    0.0000 N   0  0  0  0  0  3  0  0  0  0  0  0
    1.4289   -4.1250    0.0000 S   0  0  0  0  0  6  0  0  0  0  0  0
    1.0164   -4.8395    0.0000 O   0  0  0  0  0  2  0  0  0  0  0  0
    1.8414   -3.4105    0.0000 O   0  0  0  0  0  2  0  0  0  0  0  0
    2.1434   -4.5375    0.0000 C   0  0  0  0  0  4  0  0  0  0  0  0
    2.8579   -4.1250    0.0000 C   0  0  0  0  0  4  0  0  0  0  0  0
    3.5724   -4.5375    0.0000 C   0  0  0  0  0  4  0  0  0  0  0  0
    3.5724   -5.3625    0.0000 C   0  0  0  0  0  4  0  0  0  0  0  0
    4.2868   -5.7750    0.0000 N   0  0  0  0  0  3  0  0  0  0  0  0
    2.8579   -5.7750    0.0000 C   0  0  0  0  0  4  0  0  0  0  0  0
    2.1434   -5.3625    0.0000 C   0  0  0  0  0  4  0  0  0  0  0  0
  1  2  1  0  0  0  0 
  2  3  1  0  0  0  0 
  3  4  1  0  0  0  0 
  4  5  1  0  0  0  0 
  5  6  1  0  0  0  0 
  6  7  2  0  0  0  0 
  6  8  1  0  0  0  0 
  8  9  1  0  0  0  0 
  9 10  2  0  0  0  0 
  9 11  2  0  0  0  0 
  9 12  1  0  0  0  0 
 12 13  2  0  0  0  0 
 13 14  1  0  0  0  0 
 14 15  2  0  0  0  0 
 15 16  1  0  0  0  0 
 15 17  1  0  0  0  0 
 17 18  2  0  0  0  0 
 12 18  1  0  0  0  0 
M  END
> <Mol Weight>
271.336

> <Formula>
C11H17N3O3S

> <CdId>
100

> <RCDK_LipinskiFailures>
0

> <source>
FDA

> <name>
Carbutamide

> <ABUNDANCE>
89.87% at pH 4.8

> <BLABBER_CHARGE>


> <inchi>
1S/C11H17N3O3S/c1-2-3-8-13-11(15)14-18(16,17)10-6-4-9(12)5-7-10/h4-7H,2-3,8,12H2,1H3,(H2,13,14,15)

> <activity>
0

$$$$

  CDK     0331111707

 12 11  0  0  0  0  0  0  0  0999 V2000
    1.1369    2.3683    0.0000 C   0  0  0  0  0  4  0  0  0  0  0  0
    1.8948    2.6941    0.0000 C   0  0  0  0  0  4  0  0  0  0  0  0
    2.5560    2.2006    0.0000 C   0  0  0  0  0  4  0  0  0  0  0  0
    2.0625    1.5395    0.0000 C   0  0  0  0  0  4  0  0  0  0  0  0
    1.2432    1.6363    0.0000 C   0  0  0  0  0  4  0  0  0  0  0  0
    3.2171    1.7071    0.0000 C   0  0  0  0  0  4  0  0  0  0  0  0
    3.1203    0.8878    0.0000 O   0  0  0  0  0  2  0  0  0  0  0  0
    3.9751    2.0330    0.0000 N   0  0  0  0  0  3  0  0  0  0  0  0
    4.6362    1.5395    0.0000 C   0  0  0  0  0  4  0  0  0  0  0  0
    5.3941    1.8653    0.0000 N   0  0  0  0  0  3  0  0  0  0  0  0
    4.5394    0.7202    0.0000 O   0  0  0  0  0  2  0  0  0  0  0  0
    3.0495    2.8617    0.0000 Br  0  0  0  0  0  1  0  0  0  0  0  0
  1  2  1  0  0  0  0 
  2  3  1  0  0  0  0 
  3  4  1  0  0  0  0 
  4  5  1  0  0  0  0 
  3  6  1  0  0  0  0 
  6  7  2  0  0  0  0 
  6  8  1  0  0  0  0 
  8  9  1  0  0  0  0 
  9 10  1  0  0  0  0 
  9 11  2  0  0  0  0 
  3 12  1  0  0  0  0 
M  END
> <Mol Weight>
237.094

> <Formula>
C7H13BrN2O2

> <CdId>
99

> <RCDK_LipinskiFailures>
0

> <source>
FDA

> <name>
Carbromal

> <ABUNDANCE>
100% at pH 4.8

> <BLABBER_CHARGE>


> <inchi>
1S/C7H13BrN2O2/c1-3-7(8,4-2)5(11)10-6(9)12/h3-4H2,1-2H3,(H3,9,10,11,12)

> <activity>
0

$$$$

  CDK     0331111707

  5  4  0  0  0  0  0  0  0  0999 V2000
    0.8250   -0.8250    0.0000 Cl  0  0  0  0  0  1  0  0  0  0  0  0
    0.8250    0.0000    0.0000 C   0  0  0  0  0  4  0  0  0  0  0  0
    0.8250    0.8250    0.0000 Cl  0  0  0  0  0  1  0  0  0  0  0  0
    1.6500   -0.0000    0.0000 Cl  0  0  0  0  0  1  0  0  0  0  0  0
    0.0000    0.0000    0.0000 Cl  0  0  0  0  0  1  0  0  0  0  0  0
  1  2  1  0  0  0  0 
  2  3  1  0  0  0  0 
  2  4  1  0  0  0  0 
  2  5  1  0  0  0  0 
M  END
> <Mol Weight>
153.823

> <Formula>
CCl4

> <CdId>
98

> <RCDK_LipinskiFailures>
0

> <source>
BYLER

> <name>
carbon tetrachloride

> <ABUNDANCE>
No species found

> <BLABBER_CHARGE>


> <inchi>
1S/CCl4/c2-1(3,4)5

> <activity>
0

$$$$

  CDK     0331111707

 11 10  0  0  0  0  0  0  0  0999 V2000
    4.6184    2.6664    0.0000 N   0  0  0  0  0  4  0  0  0  0  0  0
    4.6184    1.8414    0.0000 C   0  0  0  0  0  4  0  0  0  0  0  0
    3.9039    1.4289    0.0000 C   0  0  0  0  0  4  0  0  0  0  0  0
    3.1895    1.8414    0.0000 S   0  0  0  0  0  2  0  0  0  0  0  0
    2.4750    1.4289    0.0000 C   0  0  0  0  0  4  0  0  0  0  0  0
    1.7605    1.8414    0.0000 C   0  0  0  0  0  4  0  0  0  0  0  0
    1.0461    1.4289    0.0000 O   0  0  0  0  0  2  0  0  0  0  0  0
    1.7605    2.6664    0.0000 O   0  0  0  0  0  1  0  0  0  0  0  0
    5.3329    1.4289    0.0000 C   0  0  0  0  0  4  0  0  0  0  0  0
    6.0474    1.8414    0.0000 O   0  0  0  0  0  2  0  0  0  0  0  0
    5.3329    0.6039    0.0000 O   0  0  0  0  0  1  0  0  0  0  0  0
  1  2  1  0  0  0  0 
  2  3  1  0  0  0  0 
  3  4  1  0  0  0  0 
  4  5  1  0  0  0  0 
  5  6  1  0  0  0  0 
  6  7  2  0  0  0  0 
  6  8  1  0  0  0  0 
  2  9  1  0  0  0  0 
  9 10  2  0  0  0  0 
  9 11  1  0  0  0  0 
M  CHG  1   1   1
M  CHG  1   8  -1
M  CHG  1  11  -1
M  END
> <Mol Weight>
179.194

> <Formula>
C5H9NO4S

> <CdId>
97

> <RCDK_LipinskiFailures>
0

> <source>
FDA

> <name>
Carbocysteine

> <ABUNDANCE>
96.45% at pH 4.8

> <BLABBER_CHARGE>
-1

> <inchi>
1S/C5H9NO4S/c6-3(5(9)10)1-11-2-4(7)8/h3H,1-2,6H2,(H,7,8)(H,9,10)

> <activity>
0

$$$$

  CDK     0331111707

 20 21  0  0  0  0  0  0  0  0999 V2000
   -2.8579   -1.6500    0.0000 C   0  0  0  0  0  4  0  0  0  0  0  0
   -2.1434   -1.2375    0.0000 N   0  0  0  0  0  4  0  0  0  0  0  0
   -2.1434   -0.4125    0.0000 C   0  0  0  0  0  4  0  0  0  0  0  0
   -1.4289   -1.6500    0.0000 C   0  0  0  0  0  4  0  0  0  0  0  0
   -0.7145   -1.2375    0.0000 C   0  0  0  0  0  4  0  0  0  0  0  0
    0.0000   -1.6500    0.0000 O   0  0  0  0  0  2  0  0  0  0  0  0
    0.7145   -1.2375    0.0000 C   0  0  0  0  0  4  0  0  0  0  0  0
    1.4289   -1.6500    0.0000 C   0  0  0  0  0  4  0  0  0  0  0  0
    2.1434   -1.2375    0.0000 C   0  0  0  0  0  4  0  0  0  0  0  0
    2.8579   -1.6500    0.0000 C   0  0  0  0  0  4  0  0  0  0  0  0
    2.8579   -2.4750    0.0000 C   0  0  0  0  0  4  0  0  0  0  0  0
    2.1434   -2.8875    0.0000 C   0  0  0  0  0  4  0  0  0  0  0  0
    1.4289   -2.4750    0.0000 C   0  0  0  0  0  4  0  0  0  0  0  0
    3.5724   -2.8875    0.0000 Cl  0  0  0  0  0  1  0  0  0  0  0  0
    0.7145   -0.4125    0.0000 C   0  0  0  0  0  4  0  0  0  0  0  0
    0.0000   -0.0000    0.0000 C   0  0  0  0  0  4  0  0  0  0  0  0
    0.0000    0.8250    0.0000 C   0  0  0  0  0  4  0  0  0  0  0  0
    0.7145    1.2375    0.0000 C   0  0  0  0  0  4  0  0  0  0  0  0
    1.4289    0.8250    0.0000 C   0  0  0  0  0  4  0  0  0  0  0  0
    1.4289    0.0000    0.0000 N   0  0  0  0  0  3  0  0  0  0  0  0
  1  2  1  0  0  0  0 
  2  3  1  0  0  0  0 
  2  4  1  0  0  0  0 
  4  5  1  0  0  0  0 
  5  6  1  0  0  0  0 
  6  7  1  0  0  0  0 
  7  8  1  0  0  0  0 
  8  9  2  0  0  0  0 
  9 10  1  0  0  0  0 
 10 11  2  0  0  0  0 
 11 12  1  0  0  0  0 
 12 13  2  0  0  0  0 
  8 13  1  0  0  0  0 
 11 14  1  0  0  0  0 
  7 15  1  0  0  0  0 
 15 16  2  0  0  0  0 
 16 17  1  0  0  0  0 
 17 18  2  0  0  0  0 
 18 19  1  0  0  0  0 
 19 20  2  0  0  0  0 
 15 20  1  0  0  0  0 
M  CHG  1   2   1
M  END
> <Mol Weight>
290.788

> <Formula>
C16H19ClN2O

> <CdId>
96

> <RCDK_LipinskiFailures>
0

> <source>
FDA

> <name>
Carbinoxamine

> <ABUNDANCE>
72.62% at pH 4.8

> <BLABBER_CHARGE>
1

> <inchi>
1S/C16H19ClN2O/c1-19(2)11-12-20-16(15-5-3-4-10-18-15)13-6-8-14(17)9-7-13/h3-10,16H,11-12H2,1-2H3

> <activity>
0

$$$$

  CDK     0331111707

 20 21  0  0  0  0  0  0  0  0999 V2000
    0.8838    0.7541    0.0000 C   0  0  0  0  0  4  0  0  0  0  0  0
    1.1387   -0.0305    0.0000 N   0  0  0  0  0  3  0  0  0  0  0  0
    1.9233   -0.2854    0.0000 C   0  0  0  0  0  4  0  0  0  0  0  0
    2.6378    0.1271    0.0000 C   0  0  0  0  0  4  0  0  0  0  0  0
    3.3523   -0.2854    0.0000 C   0  0  0  0  0  4  0  0  0  0  0  0
    4.0668    0.1271    0.0000 O   0  0  0  0  0  3  0  0  0  0  0  0
    3.3523   -1.1104    0.0000 C   0  0  0  0  0  4  0  0  0  0  0  0
    2.6378   -1.5229    0.0000 C   0  0  0  0  0  4  0  0  0  0  0  0
    1.9233   -1.1104    0.0000 C   0  0  0  0  0  4  0  0  0  0  0  0
    1.1387   -1.3654    0.0000 C   0  0  0  0  0  4  0  0  0  0  0  0
    0.6538   -0.6979    0.0000 C   0  0  0  0  0  4  0  0  0  0  0  0
   -0.1712   -0.6979    0.0000 S   0  0  0  0  0  6  0  0  0  0  0  0
   -0.9962   -0.6979    0.0000 O   0  0  0  0  0  2  0  0  0  0  0  0
   -0.1712   -1.5229    0.0000 O   0  0  0  0  0  2  0  0  0  0  0  0
   -0.1712    0.1271    0.0000 O   0  0  0  0  0  1  0  0  0  0  0  0
    4.0668   -1.5229    0.0000 N   0  0  0  0  0  4  0  0  0  0  0  0
    4.7812   -1.1104    0.0000 N   0  0  0  0  0  3  0  0  0  0  0  0
    5.4957   -1.5229    0.0000 C   0  0  0  0  0  4  0  0  0  0  0  0
    6.2102   -1.1104    0.0000 N   0  0  0  0  0  3  0  0  0  0  0  0
    5.4957   -2.3479    0.0000 O   0  0  0  0  0  2  0  0  0  0  0  0
  1  2  1  0  0  0  0 
  2  3  1  0  0  0  0 
  3  4  2  0  0  0  0 
  4  5  1  0  0  0  0 
  5  6  2  0  0  0  0 
  5  7  1  0  0  0  0 
  7  8  1  0  0  0  0 
  8  9  2  0  0  0  0 
  3  9  1  0  0  0  0 
  9 10  1  0  0  0  0 
 10 11  1  0  0  0  0 
  2 11  1  0  0  0  0 
 11 12  1  0  0  0  0 
 12 13  2  0  0  0  0 
 12 14  2  0  0  0  0 
 12 15  1  0  0  0  0 
  7 16  2  0  0  0  0 
 16 17  1  4  0  0  0 
 17 18  1  0  0  0  0 
 18 19  1  0  0  0  0 
 18 20  2  0  0  0  0 
M  CHG  1   6   1
M  CHG  1  15  -1
M  CHG  1  16   1
M  END
> <Mol Weight>
300.291

> <Formula>
C10H12N4O5S

> <CdId>
95

> <RCDK_LipinskiFailures>
0

> <source>
FDA

> <name>
Carbazochrome

> <ABUNDANCE>
66.57% at pH 4.8

> <BLABBER_CHARGE>
1

> <inchi>
1S/C10H12N4O5S/c1-14-7-4-8(15)6(12-13-10(11)16)2-5(7)3-9(14)20(17,18)19/h2,4,9H,3H2,1H3,(H3,11,13,16)(H,17,18,19)/b12-6+

> <activity>
0

$$$$

  CDK     0331111707

 18 20  0  0  0  0  0  0  0  0999 V2000
    3.0892    1.5695    0.0000 N   0  0  0  0  0  3  0  0  0  0  0  0
    3.8037    1.1570    0.0000 C   0  0  0  0  0  4  0  0  0  0  0  0
    4.5181    1.5695    0.0000 O   0  0  0  0  0  2  0  0  0  0  0  0
    3.8037    0.3320    0.0000 N   0  0  0  0  0  3  0  0  0  0  0  0
    4.5470   -0.0260    0.0000 C   0  0  0  0  0  4  0  0  0  0  0  0
    5.1517    0.5352    0.0000 C   0  0  0  0  0  4  0  0  0  0  0  0
    5.9401    0.2920    0.0000 C   0  0  0  0  0  4  0  0  0  0  0  0
    6.1237   -0.5123    0.0000 C   0  0  0  0  0  4  0  0  0  0  0  0
    5.5189   -1.0735    0.0000 C   0  0  0  0  0  4  0  0  0  0  0  0
    4.7305   -0.8303    0.0000 C   0  0  0  0  0  4  0  0  0  0  0  0
    4.2162   -1.4753    0.0000 C   0  0  0  0  0  4  0  0  0  0  0  0
    3.3912   -1.4753    0.0000 C   0  0  0  0  0  4  0  0  0  0  0  0
    2.8768   -0.8303    0.0000 C   0  0  0  0  0  4  0  0  0  0  0  0
    2.0884   -1.0735    0.0000 C   0  0  0  0  0  4  0  0  0  0  0  0
    1.4837   -0.5123    0.0000 C   0  0  0  0  0  4  0  0  0  0  0  0
    1.6673    0.2920    0.0000 C   0  0  0  0  0  4  0  0  0  0  0  0
    2.4556    0.5352    0.0000 C   0  0  0  0  0  4  0  0  0  0  0  0
    3.0604   -0.0260    0.0000 C   0  0  0  0  0  4  0  0  0  0  0  0
  1  2  1  0  0  0  0 
  2  3  2  0  0  0  0 
  2  4  1  0  0  0  0 
  4  5  1  0  0  0  0 
  5  6  2  0  0  0  0 
  6  7  1  0  0  0  0 
  7  8  2  0  0  0  0 
  8  9  1  0  0  0  0 
  9 10  2  0  0  0  0 
  5 10  1  0  0  0  0 
 10 11  1  0  0  0  0 
 11 12  2  0  0  0  0 
 12 13  1  0  0  0  0 
 13 14  2  0  0  0  0 
 14 15  1  0  0  0  0 
 15 16  2  0  0  0  0 
 16 17  1  0  0  0  0 
 17 18  2  0  0  0  0 
  4 18  1  0  0  0  0 
 13 18  1  0  0  0  0 
M  END
> <Mol Weight>
236.2686

> <Formula>
C15H12N2O

> <CdId>
94

> <RCDK_LipinskiFailures>
0

> <source>
BYLER

> <name>
carbamazepine

> <ABUNDANCE>
100% at pH 4.8

> <BLABBER_CHARGE>


> <inchi>
1S/C15H12N2O/c16-15(18)17-13-7-3-1-5-11(13)9-10-12-6-2-4-8-14(12)17/h1-10H,(H2,16,18)

> <activity>
0

$$$$

  CDK     0331111707

 14 15  0  0  0  0  0  0  0  0999 V2000
    4.0668    2.3479    0.0000 C   0  0  0  0  0  4  0  0  0  0  0  0
    3.3523    1.9354    0.0000 N   0  0  0  0  0  3  0  0  0  0  0  0
    3.3523    1.1104    0.0000 C   0  0  0  0  0  4  0  0  0  0  0  0
    4.0668    0.6979    0.0000 O   0  0  0  0  0  2  0  0  0  0  0  0
    2.6378    0.6979    0.0000 N   0  0  0  0  0  3  0  0  0  0  0  0
    2.6378   -0.1271    0.0000 C   0  0  0  0  0  4  0  0  0  0  0  0
    1.9233    1.1104    0.0000 C   0  0  0  0  0  4  0  0  0  0  0  0
    1.1387    0.8555    0.0000 N   0  0  0  0  0  3  0  0  0  0  0  0
    0.6538    1.5229    0.0000 C   0  0  0  0  0  4  0  0  0  0  0  0
    1.1387    2.1904    0.0000 N   0  0  0  0  0  3  0  0  0  0  0  0
    0.8838    2.9750    0.0000 C   0  0  0  0  0  4  0  0  0  0  0  0
    1.9233    1.9354    0.0000 C   0  0  0  0  0  4  0  0  0  0  0  0
    2.6378    2.3479    0.0000 C   0  0  0  0  0  4  0  0  0  0  0  0
    2.6378    3.1729    0.0000 O   0  0  0  0  0  2  0  0  0  0  0  0
  1  2  1  0  0  0  0 
  2  3  1  0  0  0  0 
  3  4  2  0  0  0  0 
  3  5  1  0  0  0  0 
  5  6  1  0  0  0  0 
  5  7  1  0  0  0  0 
  7  8  1  0  0  0  0 
  8  9  2  0  0  0  0 
  9 10  1  0  0  0  0 
 10 11  1  0  0  0  0 
 10 12  1  0  0  0  0 
  7 12  2  0  0  0  0 
 12 13  1  0  0  0  0 
  2 13  1  0  0  0  0 
 13 14  2  0  0  0  0 
M  END
> <Mol Weight>
194.1906

> <Formula>
C8H10N4O2

> <CdId>
92

> <RCDK_LipinskiFailures>
0

> <source>
BYLER

> <name>
caffein

> <ABUNDANCE>
99.97% at pH 4.8

> <BLABBER_CHARGE>


> <inchi>
1S/C8H10N4O2/c1-10-4-9-6-5(10)7(13)12(3)8(14)11(6)2/h4H,1-3H3

> <activity>
0

$$$$

  CDK     0331111707

 24 28  0  0  0  0  0  0  0  0999 V2000
    2.4817   -3.9190    0.0000 O   0  0  0  0  0  2  0  0  0  0  0  0
    1.9253   -3.3098    0.0000 C   0  0  0  0  0  4  0  0  0  0  0  0
    1.1196   -3.4870    0.0000 C   0  0  0  0  0  4  0  0  0  0  0  0
    0.5633   -2.8778    0.0000 C   0  0  0  0  0  4  0  0  0  0  0  0
    0.8127   -2.0914    0.0000 C   0  0  0  0  0  4  0  0  0  0  0  0
    1.2248   -1.5105    0.0000 C   0  0  0  0  0  4  0  0  0  0  0  0
    1.1634   -0.5574    0.0000 C   0  0  0  0  0  4  0  0  0  0  0  0
    0.2444   -0.5581    0.0000 N   0  0  0  0  0  4  0  0  0  0  0  0
    0.1175   -1.3600    0.0000 C   0  0  0  0  0  4  0  0  0  0  0  0
    0.6220   -0.9357    0.0000 C   0  0  0  0  0  4  0  0  0  0  0  0
    1.5820   -0.9250    0.0000 C   0  0  0  0  0  4  0  0  0  0  0  0
    2.2207   -1.4472    0.0000 C   0  0  0  0  0  4  0  0  0  0  0  0
    2.9923   -1.1552    0.0000 C   0  0  0  0  0  4  0  0  0  0  0  0
    3.1252   -0.3410    0.0000 C   0  0  0  0  0  4  0  0  0  0  0  0
    2.4865    0.1812    0.0000 C   0  0  0  0  0  4  0  0  0  0  0  0
    1.7149   -0.1108    0.0000 C   0  0  0  0  0  4  0  0  0  0  0  0
    1.3041    0.6047    0.0000 O   0  0  0  0  0  2  0  0  0  0  0  0
    1.6184   -1.9142    0.0000 C   0  0  0  0  0  4  0  0  0  0  0  0
    2.1748   -2.5234    0.0000 C   0  0  0  0  0  4  0  0  0  0  0  0
   -0.2917    0.0690    0.0000 C   0  0  0  0  0  4  0  0  0  0  0  0
   -0.0166    0.8468    0.0000 C   0  0  0  0  0  4  0  0  0  0  0  0
   -0.3721    1.5913    0.0000 C   0  0  0  0  0  4  0  0  0  0  0  0
    0.3723    1.9468    0.0000 C   0  0  0  0  0  4  0  0  0  0  0  0
    0.7278    1.2023    0.0000 C   0  0  0  0  0  4  0  0  0  0  0  0
  1  2  1  0  0  0  0 
  2  3  2  0  0  0  0 
  3  4  1  0  0  0  0 
  4  5  2  0  0  0  0 
  5  6  1  0  0  0  0 
  6  7  1  0  0  0  0 
  7  8  1  0  0  0  0 
  8  9  1  0  0  0  0 
  9 10  1  0  0  0  0 
 10 11  1  0  0  0  0 
 11 12  1  0  0  0  0 
 12 13  1  0  0  0  0 
 13 14  1  0  0  0  0 
 14 15  1  0  0  0  0 
 15 16  1  0  0  0  0 
  7 16  1  0  0  0  0 
 11 16  1  0  0  0  0 
 16 17  1  0  0  0  0 
 11 18  1  0  0  0  0 
  5 18  1  0  0  0  0 
 18 19  2  0  0  0  0 
  2 19  1  0  0  0  0 
  8 20  1  0  0  0  0 
 20 21  1  0  0  0  0 
 21 22  1  0  0  0  0 
 22 23  1  0  0  0  0 
 23 24  1  0  0  0  0 
 21 24  1  0  0  0  0 
M  CHG  1   8   1
M  END
> <Mol Weight>
327.4605

> <Formula>
C21H29NO2

> <CdId>
91

> <RCDK_LipinskiFailures>
0

> <source>
FDA

> <name>
Butorphanol

> <ABUNDANCE>
99.98% at pH 4.8

> <BLABBER_CHARGE>
1

> <inchi>
1S/C21H29NO2/c23-17-7-6-16-12-19-21(24)9-2-1-8-20(21,18(16)13-17)10-11-22(19)14-15-4-3-5-15/h6-7,13,15,19,23-24H,1-5,8-12,14H2

> <activity>
0

$$$$

  CDK     0331111707

 29 32  0  0  0  0  0  0  0  0999 V2000
    7.1447   -0.0000    0.0000 C   0  0  0  0  0  4  0  0  0  0  0  0
    6.4302   -0.4125    0.0000 C   0  0  0  0  0  4  0  0  0  0  0  0
    5.7158   -0.0000    0.0000 C   0  0  0  0  0  4  0  0  0  0  0  0
    5.0013   -0.4125    0.0000 C   0  0  0  0  0  4  0  0  0  0  0  0
    5.0013   -1.2375    0.0000 O   0  0  0  0  0  2  0  0  0  0  0  0
    4.2868   -0.0000    0.0000 C   0  0  0  0  0  4  0  0  0  0  0  0
    4.2868    0.8250    0.0000 C   0  0  0  0  0  4  0  0  0  0  0  0
    3.5724    1.2375    0.0000 C   0  0  0  0  0  4  0  0  0  0  0  0
    2.8579    0.8250    0.0000 C   0  0  0  0  0  4  0  0  0  0  0  0
    2.8579    0.0000    0.0000 C   0  0  0  0  0  4  0  0  0  0  0  0
    3.5724   -0.4125    0.0000 C   0  0  0  0  0  4  0  0  0  0  0  0
    2.1434   -0.4125    0.0000 N   0  0  0  0  0  3  0  0  0  0  0  0
    2.1434   -1.2375    0.0000 C   0  0  0  0  0  4  0  0  0  0  0  0
    1.4289   -1.6500    0.0000 C   0  0  0  0  0  4  0  0  0  0  0  0
    1.4289   -2.4750    0.0000 C   0  0  0  0  0  4  0  0  0  0  0  0
    0.7145   -2.8875    0.0000 N   0  0  0  0  0  3  0  0  0  0  0  0
    0.7145   -3.7125    0.0000 C   0  0  0  0  0  4  0  0  0  0  0  0
    0.0000   -4.1250    0.0000 C   0  0  0  0  0  4  0  0  0  0  0  0
   -0.7145   -3.7125    0.0000 N   0  0  0  0  0  4  0  0  0  0  0  0
   -1.4289   -4.1250    0.0000 C   0  0  0  0  0  4  0  0  0  0  0  0
   -0.7145   -2.8875    0.0000 C   0  0  0  0  0  4  0  0  0  0  0  0
    0.0000   -2.4750    0.0000 C   0  0  0  0  0  4  0  0  0  0  0  0
    1.4289   -0.0000    0.0000 C   0  0  0  0  0  4  0  0  0  0  0  0
    0.7145   -0.4125    0.0000 C   0  0  0  0  0  4  0  0  0  0  0  0
   -0.0000    0.0000    0.0000 C   0  0  0  0  0  4  0  0  0  0  0  0
    0.0000    0.8250    0.0000 C   0  0  0  0  0  4  0  0  0  0  0  0
    0.7145    1.2375    0.0000 C   0  0  0  0  0  4  0  0  0  0  0  0
    1.4289    0.8250    0.0000 C   0  0  0  0  0  4  0  0  0  0  0  0
    2.1434    1.2375    0.0000 S   0  0  0  0  0  2  0  0  0  0  0  0
  1  2  1  0  0  0  0 
  2  3  1  0  0  0  0 
  3  4  1  0  0  0  0 
  4  5  2  0  0  0  0 
  4  6  1  0  0  0  0 
  6  7  2  0  0  0  0 
  7  8  1  0  0  0  0 
  8  9  2  0  0  0  0 
  9 10  1  0  0  0  0 
 10 11  2  0  0  0  0 
  6 11  1  0  0  0  0 
 10 12  1  0  0  0  0 
 12 13  1  0  0  0  0 
 13 14  1  0  0  0  0 
 14 15  1  0  0  0  0 
 15 16  1  0  0  0  0 
 16 17  1  0  0  0  0 
 17 18  1  0  0  0  0 
 18 19  1  0  0  0  0 
 19 20  1  0  0  0  0 
 19 21  1  0  0  0  0 
 21 22  1  0  0  0  0 
 16 22  1  0  0  0  0 
 12 23  1  0  0  0  0 
 23 24  2  0  0  0  0 
 24 25  1  0  0  0  0 
 25 26  2  0  0  0  0 
 26 27  1  0  0  0  0 
 27 28  2  0  0  0  0 
 23 28  1  0  0  0  0 
 28 29  1  0  0  0  0 
  9 29  1  0  0  0  0 
M  CHG  1  19   1
M  END
> <Mol Weight>
409.587

> <Formula>
C24H31N3OS

> <CdId>
90

> <RCDK_LipinskiFailures>
0

> <source>
FDA

> <name>
Butaperazine

> <ABUNDANCE>
76.81% at pH 4.8

> <BLABBER_CHARGE>
1

> <inchi>
1S/C24H31N3OS/c1-3-7-22(28)19-10-11-24-21(18-19)27(20-8-4-5-9-23(20)29-24)13-6-12-26-16-14-25(2)15-17-26/h4-5,8-11,18H,3,6-7,12-17H2,1-2H3

> <activity>
0

$$$$

  CDK     0331111707

 16 16  0  0  0  0  0  0  0  0999 V2000
    2.5875    2.3582    0.0000 C   0  0  0  0  0  4  0  0  0  0  0  0
    2.0572    1.7262    0.0000 C   0  0  0  0  0  4  0  0  0  0  0  0
    1.2448    1.8695    0.0000 C   0  0  0  0  0  4  0  0  0  0  0  0
    0.7145    1.2375    0.0000 C   0  0  0  0  0  4  0  0  0  0  0  0
    0.1842    1.8695    0.0000 C   0  0  0  0  0  4  0  0  0  0  0  0
    0.4663    2.6447    0.0000 C   0  0  0  0  0  4  0  0  0  0  0  0
   -0.0640    3.2767    0.0000 C   0  0  0  0  0  4  0  0  0  0  0  0
    1.2788    2.7880    0.0000 C   0  0  0  0  0  4  0  0  0  0  0  0
    1.4289    0.8250    0.0000 C   0  0  0  0  0  4  0  0  0  0  0  0
    2.1434    1.2375    0.0000 O   0  0  0  0  0  2  0  0  0  0  0  0
    1.4289    0.0000    0.0000 N   0  0  0  0  0  3  0  0  0  0  0  0
    0.7145   -0.4125    0.0000 C   0  0  0  0  0  4  0  0  0  0  0  0
    0.7145   -1.2375    0.0000 O   0  0  0  0  0  2  0  0  0  0  0  0
    0.0000   -0.0000    0.0000 N   0  0  0  0  0  3  0  0  0  0  0  0
   -0.0000    0.8250    0.0000 C   0  0  0  0  0  4  0  0  0  0  0  0
   -0.7145    1.2375    0.0000 O   0  0  0  0  0  2  0  0  0  0  0  0
  1  2  2  0  0  0  0 
  2  3  1  0  0  0  0 
  3  4  1  0  0  0  0 
  4  5  1  0  0  0  0 
  5  6  1  0  0  0  0 
  6  7  1  0  0  0  0 
  6  8  1  0  0  0  0 
  4  9  1  0  0  0  0 
  9 10  2  0  0  0  0 
  9 11  1  0  0  0  0 
 11 12  1  0  0  0  0 
 12 13  2  0  0  0  0 
 12 14  1  0  0  0  0 
 14 15  1  0  0  0  0 
  4 15  1  0  0  0  0 
 15 16  2  0  0  0  0 
M  END
> <Mol Weight>
224.2563

> <Formula>
C11H16N2O3

> <CdId>
89

> <RCDK_LipinskiFailures>
0

> <source>
FDA

> <name>
Butalbital

> <ABUNDANCE>
99.92% at pH 4.8

> <BLABBER_CHARGE>


> <inchi>
1S/C11H16N2O3/c1-4-5-11(6-7(2)3)8(14)12-10(16)13-9(11)15/h4,7H,1,5-6H2,2-3H3,(H2,12,13,14,15,16)

> <activity>
0

$$$$

  CDK     0331111707

 28 31  0  0  0  0  0  0  0  0999 V2000
    2.9195   -1.0164    0.0000 O   0  0  0  0  0  2  0  0  0  0  0  0
    2.5070   -0.3020    0.0000 C   0  0  0  0  0  4  0  0  0  0  0  0
    1.6820   -0.3020    0.0000 C   0  0  0  0  0  4  0  0  0  0  0  0
    1.2695    0.4125    0.0000 C   0  0  0  0  0  4  0  0  0  0  0  0
    0.7846   -0.2549    0.0000 C   0  0  0  0  0  4  0  0  0  0  0  0
    0.0000   -0.0000    0.0000 C   0  0  0  0  0  4  0  0  0  0  0  0
   -0.0000    0.8250    0.0000 C   0  0  0  0  0  4  0  0  0  0  0  0
    0.7846    1.0799    0.0000 C   0  0  0  0  0  4  0  0  0  0  0  0
    1.6820    1.1270    0.0000 C   0  0  0  0  0  4  0  0  0  0  0  0
    2.5070    1.1270    0.0000 C   0  0  0  0  0  4  0  0  0  0  0  0
    2.9195    1.8414    0.0000 O   0  0  0  0  0  2  0  0  0  0  0  0
    2.9195    0.4125    0.0000 N   0  0  0  0  0  3  0  0  0  0  0  0
    3.7445    0.4125    0.0000 C   0  0  0  0  0  4  0  0  0  0  0  0
    4.1570    1.1270    0.0000 C   0  0  0  0  0  4  0  0  0  0  0  0
    4.9820    1.1270    0.0000 C   0  0  0  0  0  4  0  0  0  0  0  0
    5.3945    1.8414    0.0000 C   0  0  0  0  0  4  0  0  0  0  0  0
    6.2195    1.8414    0.0000 N   0  0  0  0  0  4  0  0  0  0  0  0
    6.6320    2.5559    0.0000 C   0  0  0  0  0  4  0  0  0  0  0  0
    7.4570    2.5559    0.0000 C   0  0  0  0  0  4  0  0  0  0  0  0
    7.8695    1.8414    0.0000 N   0  0  0  0  0  3  0  0  0  0  0  0
    7.4570    1.1270    0.0000 C   0  0  0  0  0  4  0  0  0  0  0  0
    6.6320    1.1270    0.0000 C   0  0  0  0  0  4  0  0  0  0  0  0
    8.6945    1.8414    0.0000 C   0  0  0  0  0  4  0  0  0  0  0  0
    9.1070    2.5559    0.0000 N   0  0  0  0  0  3  0  0  0  0  0  0
    9.9320    2.5559    0.0000 C   0  0  0  0  0  4  0  0  0  0  0  0
   10.3445    1.8414    0.0000 C   0  0  0  0  0  4  0  0  0  0  0  0
    9.9320    1.1270    0.0000 C   0  0  0  0  0  4  0  0  0  0  0  0
    9.1070    1.1270    0.0000 N   0  0  0  0  0  3  0  0  0  0  0  0
  1  2  2  0  0  0  0 
  2  3  1  0  0  0  0 
  3  4  1  0  0  0  0 
  4  5  1  0  0  0  0 
  5  6  1  0  0  0  0 
  6  7  1  0  0  0  0 
  7  8  1  0  0  0  0 
  4  8  1  0  0  0  0 
  4  9  1  0  0  0  0 
  9 10  1  0  0  0  0 
 10 11  2  0  0  0  0 
 10 12  1  0  0  0  0 
  2 12  1  0  0  0  0 
 12 13  1  0  0  0  0 
 13 14  1  0  0  0  0 
 14 15  1  0  0  0  0 
 15 16  1  0  0  0  0 
 16 17  1  0  0  0  0 
 17 18  1  0  0  0  0 
 18 19  1  0  0  0  0 
 19 20  1  0  0  0  0 
 20 21  1  0  0  0  0 
 21 22  1  0  0  0  0 
 17 22  1  0  0  0  0 
 20 23  1  0  0  0  0 
 23 24  2  0  0  0  0 
 24 25  1  0  0  0  0 
 25 26  2  0  0  0  0 
 26 27  1  0  0  0  0 
 27 28  2  0  0  0  0 
 23 28  1  0  0  0  0 
M  CHG  1  17   1
M  END
> <Mol Weight>
385.5031

> <Formula>
C21H31N5O2

> <CdId>
87

> <RCDK_LipinskiFailures>
0

> <source>
FDA

> <name>
Buspirone

> <ABUNDANCE>
93.62% at pH 4.8

> <BLABBER_CHARGE>
1

> <inchi>
1S/C21H31N5O2/c27-18-16-21(6-1-2-7-21)17-19(28)26(18)11-4-3-10-24-12-14-25(15-13-24)20-22-8-5-9-23-20/h5,8-9H,1-4,6-7,10-17H2

> <activity>
0

$$$$

  CDK     0331111707

 16 16  0  0  0  0  0  0  0  0999 V2000
   -0.7145   -2.8875    0.0000 C   0  0  0  0  0  4  0  0  0  0  0  0
   -0.7145   -2.0625    0.0000 C   0  0  0  0  0  4  0  0  0  0  0  0
   -1.4289   -1.6500    0.0000 N   0  0  0  0  0  4  0  0  0  0  0  0
   -2.1434   -2.0625    0.0000 C   0  0  0  0  0  4  0  0  0  0  0  0
   -2.8579   -2.4750    0.0000 C   0  0  0  0  0  4  0  0  0  0  0  0
   -1.7309   -2.7770    0.0000 C   0  0  0  0  0  4  0  0  0  0  0  0
   -2.5559   -1.3480    0.0000 C   0  0  0  0  0  4  0  0  0  0  0  0
    0.0000   -1.6500    0.0000 C   0  0  0  0  0  4  0  0  0  0  0  0
    0.0000   -0.8250    0.0000 O   0  0  0  0  0  2  0  0  0  0  0  0
    0.7145   -2.0625    0.0000 C   0  0  0  0  0  4  0  0  0  0  0  0
    1.4289   -1.6500    0.0000 C   0  0  0  0  0  4  0  0  0  0  0  0
    2.1434   -2.0625    0.0000 C   0  0  0  0  0  4  0  0  0  0  0  0
    2.1434   -2.8875    0.0000 C   0  0  0  0  0  4  0  0  0  0  0  0
    1.4289   -3.3000    0.0000 C   0  0  0  0  0  4  0  0  0  0  0  0
    1.4289   -4.1250    0.0000 Cl  0  0  0  0  0  1  0  0  0  0  0  0
    0.7145   -2.8875    0.0000 C   0  0  0  0  0  4  0  0  0  0  0  0
  1  2  1  0  0  0  0 
  2  3  1  0  0  0  0 
  3  4  1  0  0  0  0 
  4  5  1  0  0  0  0 
  4  6  1  0  0  0  0 
  4  7  1  0  0  0  0 
  2  8  1  0  0  0  0 
  8  9  2  0  0  0  0 
  8 10  1  0  0  0  0 
 10 11  2  0  0  0  0 
 11 12  1  0  0  0  0 
 12 13  2  0  0  0  0 
 13 14  1  0  0  0  0 
 14 15  1  0  0  0  0 
 14 16  2  0  0  0  0 
 10 16  1  0  0  0  0 
M  CHG  1   3   1
M  END
> <Mol Weight>
239.741

> <Formula>
C13H18ClNO

> <CdId>
86

> <RCDK_LipinskiFailures>
0

> <source>
BYLER

> <name>
bupropion

> <ABUNDANCE>
99.97% at pH 4.8

> <BLABBER_CHARGE>
1

> <inchi>
1S/C13H18ClNO/c1-9(15-13(2,3)4)12(16)10-6-5-7-11(14)8-10/h5-9,15H,1-4H3

> <activity>
0

$$$$

  CDK     0331111707

 18 18  0  0  0  0  0  0  0  0999 V2000
   -0.7145   -0.4125    0.0000 C   0  0  0  0  0  4  0  0  0  0  0  0
   -0.0000    0.0000    0.0000 C   0  0  0  0  0  4  0  0  0  0  0  0
    0.0000    0.8250    0.0000 C   0  0  0  0  0  4  0  0  0  0  0  0
    0.7145    1.2375    0.0000 C   0  0  0  0  0  4  0  0  0  0  0  0
    1.4289    0.8250    0.0000 C   0  0  0  0  0  4  0  0  0  0  0  0
    1.4289    0.0000    0.0000 C   0  0  0  0  0  4  0  0  0  0  0  0
    0.7145   -0.4125    0.0000 C   0  0  0  0  0  4  0  0  0  0  0  0
    2.1434   -0.4125    0.0000 O   0  0  0  0  0  2  0  0  0  0  0  0
    2.8579    0.0000    0.0000 C   0  0  0  0  0  4  0  0  0  0  0  0
    3.5724   -0.4125    0.0000 C   0  0  0  0  0  4  0  0  0  0  0  0
    3.5724   -1.2375    0.0000 O   0  0  0  0  0  2  0  0  0  0  0  0
    4.2868    0.0000    0.0000 C   0  0  0  0  0  4  0  0  0  0  0  0
    5.0013   -0.4125    0.0000 N   0  0  0  0  0  4  0  0  0  0  0  0
    5.7158    0.0000    0.0000 C   0  0  0  0  0  4  0  0  0  0  0  0
    6.4302    0.4125    0.0000 C   0  0  0  0  0  4  0  0  0  0  0  0
    6.1283   -0.7145    0.0000 C   0  0  0  0  0  4  0  0  0  0  0  0
    5.3033    0.7145    0.0000 C   0  0  0  0  0  4  0  0  0  0  0  0
    2.1434    1.2375    0.0000 Cl  0  0  0  0  0  1  0  0  0  0  0  0
  1  2  1  0  0  0  0 
  2  3  2  0  0  0  0 
  3  4  1  0  0  0  0 
  4  5  2  0  0  0  0 
  5  6  1  0  0  0  0 
  6  7  2  0  0  0  0 
  2  7  1  0  0  0  0 
  6  8  1  0  0  0  0 
  8  9  1  0  0  0  0 
  9 10  1  0  0  0  0 
 10 11  1  0  0  0  0 
 10 12  1  0  0  0  0 
 12 13  1  0  0  0  0 
 13 14  1  0  0  0  0 
 14 15  1  0  0  0  0 
 14 16  1  0  0  0  0 
 14 17  1  0  0  0  0 
  5 18  1  0  0  0  0 
M  CHG  1  13   1
M  END
> <Mol Weight>
271.783

> <Formula>
C14H22ClNO2

> <CdId>
85

> <RCDK_LipinskiFailures>
0

> <source>
FDA

> <name>
Bupranolol

> <ABUNDANCE>
100% at pH 4.8

> <BLABBER_CHARGE>
1

> <inchi>
1S/C14H22ClNO2/c1-10-5-6-12(15)13(7-10)18-9-11(17)8-16-14(2,3)4/h5-7,11,16-17H,8-9H2,1-4H3

> <activity>
0

$$$$

  CDK     0331111707

 18 18  0  0  0  0  0  0  0  0999 V2000
   -3.5724   -3.7125    0.0000 C   0  0  0  0  0  4  0  0  0  0  0  0
   -2.8579   -3.3000    0.0000 C   0  0  0  0  0  4  0  0  0  0  0  0
   -2.4454   -4.0145    0.0000 C   0  0  0  0  0  4  0  0  0  0  0  0
   -3.2704   -2.5855    0.0000 C   0  0  0  0  0  4  0  0  0  0  0  0
   -2.1434   -2.8875    0.0000 N   0  0  0  0  0  4  0  0  0  0  0  0
   -1.4289   -3.3000    0.0000 C   0  0  0  0  0  4  0  0  0  0  0  0
   -0.7145   -2.8875    0.0000 C   0  0  0  0  0  4  0  0  0  0  0  0
   -0.7145   -2.0625    0.0000 O   0  0  0  0  0  2  0  0  0  0  0  0
    0.0000   -3.3000    0.0000 C   0  0  0  0  0  4  0  0  0  0  0  0
    0.7145   -2.8875    0.0000 O   0  0  0  0  0  2  0  0  0  0  0  0
    1.4289   -3.3000    0.0000 C   0  0  0  0  0  4  0  0  0  0  0  0
    2.1434   -2.8875    0.0000 C   0  0  0  0  0  4  0  0  0  0  0  0
    2.8579   -3.3000    0.0000 C   0  0  0  0  0  4  0  0  0  0  0  0
    2.8579   -4.1250    0.0000 C   0  0  0  0  0  4  0  0  0  0  0  0
    2.1434   -4.5375    0.0000 C   0  0  0  0  0  4  0  0  0  0  0  0
    1.4289   -4.1250    0.0000 C   0  0  0  0  0  4  0  0  0  0  0  0
    0.7145   -4.5375    0.0000 C   0  0  0  0  0  4  0  0  0  0  0  0
    0.0000   -4.9500    0.0000 N   0  0  0  0  0  3  0  0  0  0  0  0
  1  2  1  0  0  0  0 
  2  3  1  0  0  0  0 
  2  4  1  0  0  0  0 
  2  5  1  0  0  0  0 
  5  6  1  0  0  0  0 
  6  7  1  0  0  0  0 
  7  8  1  0  0  0  0 
  7  9  1  0  0  0  0 
  9 10  1  0  0  0  0 
 10 11  1  0  0  0  0 
 11 12  2  0  0  0  0 
 12 13  1  0  0  0  0 
 13 14  2  0  0  0  0 
 14 15  1  0  0  0  0 
 15 16  2  0  0  0  0 
 11 16  1  0  0  0  0 
 16 17  1  0  0  0  0 
 17 18  3  0  0  0  0 
M  CHG  1   5   1
M  END
> <Mol Weight>
248.3208

> <Formula>
C14H20N2O2

> <CdId>
84

> <RCDK_LipinskiFailures>
0

> <source>
FDA

> <name>
Bunitrolol

> <ABUNDANCE>
100% at pH 4.8

> <BLABBER_CHARGE>
1

> <inchi>
1S/C14H20N2O2/c1-14(2,3)16-9-12(17)10-18-13-7-5-4-6-11(13)8-15/h4-7,12,16-17H,9-10H2,1-3H3

> <activity>
0

$$$$

  CDK     0331111707

 20 21  0  0  0  0  0  0  0  0999 V2000
    0.0000   -4.9500    0.0000 O   0  0  0  0  0  2  0  0  0  0  0  0
    0.7145   -5.3625    0.0000 C   0  0  0  0  0  4  0  0  0  0  0  0
    0.7145   -6.1875    0.0000 O   0  0  0  0  0  1  0  0  0  0  0  0
    1.4289   -4.9500    0.0000 C   0  0  0  0  0  4  0  0  0  0  0  0
    2.1434   -5.3625    0.0000 C   0  0  0  0  0  4  0  0  0  0  0  0
    2.8579   -4.9500    0.0000 C   0  0  0  0  0  4  0  0  0  0  0  0
    2.8579   -4.1250    0.0000 O   0  0  0  0  0  2  0  0  0  0  0  0
    3.5724   -5.3625    0.0000 C   0  0  0  0  0  4  0  0  0  0  0  0
    4.2868   -4.9500    0.0000 C   0  0  0  0  0  4  0  0  0  0  0  0
    5.0013   -5.3625    0.0000 C   0  0  0  0  0  4  0  0  0  0  0  0
    5.0013   -6.1875    0.0000 C   0  0  0  0  0  4  0  0  0  0  0  0
    5.7158   -6.6000    0.0000 C   0  0  0  0  0  4  0  0  0  0  0  0
    6.4302   -6.1875    0.0000 C   0  0  0  0  0  4  0  0  0  0  0  0
    7.1447   -6.6000    0.0000 C   0  0  0  0  0  4  0  0  0  0  0  0
    7.1447   -7.4250    0.0000 C   0  0  0  0  0  4  0  0  0  0  0  0
    6.4302   -7.8375    0.0000 C   0  0  0  0  0  4  0  0  0  0  0  0
    5.7158   -7.4250    0.0000 C   0  0  0  0  0  4  0  0  0  0  0  0
    4.2868   -6.6000    0.0000 C   0  0  0  0  0  4  0  0  0  0  0  0
    3.5724   -6.1875    0.0000 C   0  0  0  0  0  4  0  0  0  0  0  0
    4.2868   -7.4250    0.0000 Cl  0  0  0  0  0  1  0  0  0  0  0  0
  1  2  2  0  0  0  0 
  2  3  1  0  0  0  0 
  2  4  1  0  0  0  0 
  4  5  1  0  0  0  0 
  5  6  1  0  0  0  0 
  6  7  2  0  0  0  0 
  6  8  1  0  0  0  0 
  8  9  2  0  0  0  0 
  9 10  1  0  0  0  0 
 10 11  2  0  0  0  0 
 11 12  1  0  0  0  0 
 12 13  1  0  0  0  0 
 13 14  1  0  0  0  0 
 14 15  1  0  0  0  0 
 15 16  1  0  0  0  0 
 16 17  1  0  0  0  0 
 12 17  1  0  0  0  0 
 11 18  1  0  0  0  0 
 18 19  2  0  0  0  0 
  8 19  1  0  0  0  0 
 18 20  1  0  0  0  0 
M  CHG  1   3  -1
M  END
> <Mol Weight>
294.773

> <Formula>
C16H19ClO3

> <CdId>
83

> <RCDK_LipinskiFailures>
0

> <source>
FDA

> <name>
Bucloxic acid

> <ABUNDANCE>
56.41% at pH 4.8

> <BLABBER_CHARGE>
-1

> <inchi>
1S/C16H19ClO3/c17-14-10-12(15(18)8-9-16(19)20)6-7-13(14)11-4-2-1-3-5-11/h6-7,10-11H,1-5,8-9H2,(H,19,20)

> <activity>
0

$$$$

  CDK     0331111707

 31 34  0  0  0  0  0  0  0  0999 V2000
    5.0013    0.4125    0.0000 C   0  0  0  0  0  4  0  0  0  0  0  0
    5.0013   -0.4125    0.0000 C   0  0  0  0  0  4  0  0  0  0  0  0
    4.1763   -0.4125    0.0000 C   0  0  0  0  0  4  0  0  0  0  0  0
    5.8263   -0.4125    0.0000 C   0  0  0  0  0  4  0  0  0  0  0  0
    5.0013   -1.2375    0.0000 C   0  0  0  0  0  4  0  0  0  0  0  0
    5.7158   -1.6500    0.0000 C   0  0  0  0  0  4  0  0  0  0  0  0
    5.7158   -2.4750    0.0000 C   0  0  0  0  0  4  0  0  0  0  0  0
    5.0013   -2.8875    0.0000 C   0  0  0  0  0  4  0  0  0  0  0  0
    4.2868   -2.4750    0.0000 C   0  0  0  0  0  4  0  0  0  0  0  0
    4.2868   -1.6500    0.0000 C   0  0  0  0  0  4  0  0  0  0  0  0
    5.0013   -3.7125    0.0000 C   0  0  0  0  0  4  0  0  0  0  0  0
    4.2868   -4.1250    0.0000 N   0  0  0  0  0  4  0  0  0  0  0  0
    4.2868   -4.9500    0.0000 C   0  0  0  0  0  4  0  0  0  0  0  0
    3.5724   -5.3625    0.0000 C   0  0  0  0  0  4  0  0  0  0  0  0
    2.8579   -4.9500    0.0000 N   0  0  0  0  0  3  0  0  0  0  0  0
    2.8579   -4.1250    0.0000 C   0  0  0  0  0  4  0  0  0  0  0  0
    3.5724   -3.7125    0.0000 C   0  0  0  0  0  4  0  0  0  0  0  0
    2.1434   -5.3625    0.0000 C   0  0  0  0  0  4  0  0  0  0  0  0
    2.1434   -6.1875    0.0000 C   0  0  0  0  0  4  0  0  0  0  0  0
    2.8579   -6.6000    0.0000 C   0  0  0  0  0  4  0  0  0  0  0  0
    2.8579   -7.4250    0.0000 C   0  0  0  0  0  4  0  0  0  0  0  0
    2.1434   -7.8375    0.0000 C   0  0  0  0  0  4  0  0  0  0  0  0
    1.4289   -7.4250    0.0000 C   0  0  0  0  0  4  0  0  0  0  0  0
    1.4289   -6.6000    0.0000 C   0  0  0  0  0  4  0  0  0  0  0  0
    1.4289   -4.9500    0.0000 C   0  0  0  0  0  4  0  0  0  0  0  0
    0.7145   -5.3625    0.0000 C   0  0  0  0  0  4  0  0  0  0  0  0
   -0.0000   -4.9500    0.0000 C   0  0  0  0  0  4  0  0  0  0  0  0
    0.0000   -4.1250    0.0000 C   0  0  0  0  0  4  0  0  0  0  0  0
    0.7145   -3.7125    0.0000 C   0  0  0  0  0  4  0  0  0  0  0  0
    1.4289   -4.1250    0.0000 C   0  0  0  0  0  4  0  0  0  0  0  0
   -0.7145   -3.7125    0.0000 Cl  0  0  0  0  0  1  0  0  0  0  0  0
  1  2  1  0  0  0  0 
  2  3  1  0  0  0  0 
  2  4  1  0  0  0  0 
  2  5  1  0  0  0  0 
  5  6  2  0  0  0  0 
  6  7  1  0  0  0  0 
  7  8  2  0  0  0  0 
  8  9  1  0  0  0  0 
  9 10  2  0  0  0  0 
  5 10  1  0  0  0  0 
  8 11  1  0  0  0  0 
 11 12  1  0  0  0  0 
 12 13  1  0  0  0  0 
 13 14  1  0  0  0  0 
 14 15  1  0  0  0  0 
 15 16  1  0  0  0  0 
 16 17  1  0  0  0  0 
 12 17  1  0  0  0  0 
 15 18  1  0  0  0  0 
 18 19  1  0  0  0  0 
 19 20  2  0  0  0  0 
 20 21  1  0  0  0  0 
 21 22  2  0  0  0  0 
 22 23  1  0  0  0  0 
 23 24  2  0  0  0  0 
 19 24  1  0  0  0  0 
 18 25  1  0  0  0  0 
 25 26  2  0  0  0  0 
 26 27  1  0  0  0  0 
 27 28  2  0  0  0  0 
 28 29  1  0  0  0  0 
 29 30  2  0  0  0  0 
 25 30  1  0  0  0  0 
 28 31  1  0  0  0  0 
M  CHG  1  12   1
M  END
> <Mol Weight>
433.028

> <Formula>
C28H33ClN2

> <CdId>
82

> <RCDK_LipinskiFailures>
0

> <source>
FDA

> <name>
Buclizine

> <ABUNDANCE>
98.51% at pH 4.8

> <BLABBER_CHARGE>
1

> <inchi>
1S/C28H33ClN2/c1-28(2,3)25-13-9-22(10-14-25)21-30-17-19-31(20-18-30)27(23-7-5-4-6-8-23)24-11-15-26(29)16-12-24/h4-16,27H,17-21H2,1-3H3

> <activity>
0

$$$$

  CDK     0331111707

 13 13  0  0  0  0  0  0  0  0999 V2000
    2.8579    3.3000    0.0000 C   0  0  0  0  0  4  0  0  0  0  0  0
    2.1434    2.8875    0.0000 C   0  0  0  0  0  4  0  0  0  0  0  0
    2.1434    2.0625    0.0000 N   0  0  0  0  0  4  0  0  0  0  0  0
    1.3184    2.0625    0.0000 C   0  0  0  0  0  4  0  0  0  0  0  0
    2.9684    2.0625    0.0000 C   0  0  0  0  0  4  0  0  0  0  0  0
    2.1434    1.2375    0.0000 C   0  0  0  0  0  4  0  0  0  0  0  0
    1.4289    0.8250    0.0000 C   0  0  0  0  0  4  0  0  0  0  0  0
    1.4289   -0.0000    0.0000 C   0  0  0  0  0  4  0  0  0  0  0  0
    0.7145   -0.4125    0.0000 C   0  0  0  0  0  4  0  0  0  0  0  0
    0.0000    0.0000    0.0000 C   0  0  0  0  0  4  0  0  0  0  0  0
    0.0000    0.8250    0.0000 C   0  0  0  0  0  4  0  0  0  0  0  0
    0.7145    1.2375    0.0000 C   0  0  0  0  0  4  0  0  0  0  0  0
    0.7145    2.0625    0.0000 Br  0  0  0  0  0  1  0  0  0  0  0  0
  1  2  1  0  0  0  0 
  2  3  1  0  0  0  0 
  3  4  1  0  0  0  0 
  3  5  1  0  0  0  0 
  3  6  1  0  0  0  0 
  6  7  1  0  0  0  0 
  7  8  2  0  0  0  0 
  8  9  1  0  0  0  0 
  9 10  2  0  0  0  0 
 10 11  1  0  0  0  0 
 11 12  2  0  0  0  0 
  7 12  1  0  0  0  0 
 12 13  1  0  0  0  0 
M  CHG  1   3   1
M  END
> <Mol Weight>
243.163

> <Formula>
C11H17BrN

> <CdId>
78

> <RCDK_LipinskiFailures>
0

> <source>
FDA

> <name>
Bretylium tosylate

> <ABUNDANCE>
No species found

> <BLABBER_CHARGE>
1

> <inchi>
1S/C11H17BrN/c1-4-13(2,3)9-10-7-5-6-8-11(10)12/h5-8H,4,9H2,1-3H3/q+1

> <activity>
0

$$$$

  CDK     0331111707

 27 29  0  0  0  0  0  0  0  0999 V2000
   -1.4289    0.8250    0.0000 C   0  0  0  0  0  4  0  0  0  0  0  0
   -1.4289   -0.0000    0.0000 C   0  0  0  0  0  4  0  0  0  0  0  0
   -2.1434   -0.4125    0.0000 O   0  0  0  0  0  2  0  0  0  0  0  0
   -0.7145   -0.4125    0.0000 O   0  0  0  0  0  2  0  0  0  0  0  0
   -0.7145   -1.2375    0.0000 C   0  0  0  0  0  4  0  0  0  0  0  0
    0.0000   -1.6500    0.0000 C   0  0  0  0  0  4  0  0  0  0  0  0
    0.0000   -2.4750    0.0000 C   0  0  0  0  0  4  0  0  0  0  0  0
   -0.7145   -2.8875    0.0000 C   0  0  0  0  0  4  0  0  0  0  0  0
   -1.4289   -2.4750    0.0000 C   0  0  0  0  0  4  0  0  0  0  0  0
   -1.4289   -1.6500    0.0000 C   0  0  0  0  0  4  0  0  0  0  0  0
   -0.7145   -3.7125    0.0000 C   0  0  0  0  0  4  0  0  0  0  0  0
   -1.4289   -4.1250    0.0000 C   0  0  0  0  0  4  0  0  0  0  0  0
   -1.4289   -4.9500    0.0000 C   0  0  0  0  0  4  0  0  0  0  0  0
   -2.1434   -5.3625    0.0000 C   0  0  0  0  0  4  0  0  0  0  0  0
   -2.8579   -4.9500    0.0000 C   0  0  0  0  0  4  0  0  0  0  0  0
   -2.8579   -4.1250    0.0000 C   0  0  0  0  0  4  0  0  0  0  0  0
   -2.1434   -3.7125    0.0000 C   0  0  0  0  0  4  0  0  0  0  0  0
   -3.5724   -5.3625    0.0000 O   0  0  0  0  0  2  0  0  0  0  0  0
   -3.5724   -6.1875    0.0000 C   0  0  0  0  0  4  0  0  0  0  0  0
   -2.8579   -6.6000    0.0000 C   0  0  0  0  0  4  0  0  0  0  0  0
   -4.2868   -6.6000    0.0000 O   0  0  0  0  0  2  0  0  0  0  0  0
   -0.0000   -4.1250    0.0000 C   0  0  0  0  0  4  0  0  0  0  0  0
    0.7145   -3.7125    0.0000 C   0  0  0  0  0  4  0  0  0  0  0  0
    1.4289   -4.1250    0.0000 C   0  0  0  0  0  4  0  0  0  0  0  0
    1.4289   -4.9500    0.0000 C   0  0  0  0  0  4  0  0  0  0  0  0
    0.7145   -5.3625    0.0000 C   0  0  0  0  0  4  0  0  0  0  0  0
   -0.0000   -4.9500    0.0000 N   0  0  0  0  0  3  0  0  0  0  0  0
  1  2  1  0  0  0  0 
  2  3  2  0  0  0  0 
  2  4  1  0  0  0  0 
  4  5  1  0  0  0  0 
  5  6  2  0  0  0  0 
  6  7  1  0  0  0  0 
  7  8  2  0  0  0  0 
  8  9  1  0  0  0  0 
  9 10  2  0  0  0  0 
  5 10  1  0  0  0  0 
  8 11  1  0  0  0  0 
 11 12  1  0  0  0  0 
 12 13  2  0  0  0  0 
 13 14  1  0  0  0  0 
 14 15  2  0  0  0  0 
 15 16  1  0  0  0  0 
 16 17  2  0  0  0  0 
 12 17  1  0  0  0  0 
 15 18  1  0  0  0  0 
 18 19  1  0  0  0  0 
 19 20  1  0  0  0  0 
 19 21  2  0  0  0  0 
 11 22  1  0  0  0  0 
 22 23  2  0  0  0  0 
 23 24  1  0  0  0  0 
 24 25  2  0  0  0  0 
 25 26  1  0  0  0  0 
 26 27  2  0  0  0  0 
 22 27  1  0  0  0  0 
M  END
> <Mol Weight>
361.3906

> <Formula>
C22H19NO4

> <CdId>
76

> <RCDK_LipinskiFailures>
0

> <source>
FDA

> <name>
Bisacodyl

> <ABUNDANCE>
65.03% at pH 4.8

> <BLABBER_CHARGE>


> <inchi>
1S/C22H19NO4/c1-15(24)26-19-10-6-17(7-11-19)22(21-5-3-4-14-23-21)18-8-12-20(13-9-18)27-16(2)25/h3-14,22H,1-2H3

> <activity>
0

$$$$

  CDK     0331111707

 29 30  0  0  0  0  0  0  0  0999 V2000
    3.1599   -4.4270    0.0000 C   0  0  0  0  0  4  0  0  0  0  0  0
    3.5724   -3.7125    0.0000 C   0  0  0  0  0  4  0  0  0  0  0  0
    3.9849   -2.9980    0.0000 O   0  0  0  0  0  2  0  0  0  0  0  0
    2.8579   -3.3000    0.0000 C   0  0  0  0  0  4  0  0  0  0  0  0
    2.1434   -3.7125    0.0000 S   0  0  0  0  0  6  0  0  0  0  0  0
    2.5559   -4.4270    0.0000 O   0  0  0  0  0  2  0  0  0  0  0  0
    1.7309   -2.9980    0.0000 O   0  0  0  0  0  2  0  0  0  0  0  0
    1.4289   -4.1250    0.0000 C   0  0  0  0  0  4  0  0  0  0  0  0
    1.4289   -4.9500    0.0000 C   0  0  0  0  0  4  0  0  0  0  0  0
    0.7145   -5.3625    0.0000 C   0  0  0  0  0  4  0  0  0  0  0  0
    0.0000   -4.9500    0.0000 C   0  0  0  0  0  4  0  0  0  0  0  0
   -0.7145   -5.3625    0.0000 F   0  0  0  0  0  1  0  0  0  0  0  0
    0.0000   -4.1250    0.0000 C   0  0  0  0  0  4  0  0  0  0  0  0
    0.7145   -3.7125    0.0000 C   0  0  0  0  0  4  0  0  0  0  0  0
    4.2868   -4.1250    0.0000 C   0  0  0  0  0  4  0  0  0  0  0  0
    4.2868   -4.9500    0.0000 O   0  0  0  0  0  2  0  0  0  0  0  0
    5.0013   -3.7125    0.0000 N   0  0  0  0  0  3  0  0  0  0  0  0
    5.7158   -4.1250    0.0000 C   0  0  0  0  0  4  0  0  0  0  0  0
    6.4302   -3.7125    0.0000 C   0  0  0  0  0  4  0  0  0  0  0  0
    7.1447   -4.1250    0.0000 C   0  0  0  0  0  4  0  0  0  0  0  0
    7.1447   -4.9500    0.0000 C   0  0  0  0  0  4  0  0  0  0  0  0
    7.8592   -5.3625    0.0000 C   0  0  0  0  0  4  0  0  0  0  0  0
    8.5737   -5.7750    0.0000 N   0  0  0  0  0  3  0  0  0  0  0  0
    6.4302   -5.3625    0.0000 C   0  0  0  0  0  4  0  0  0  0  0  0
    5.7158   -4.9500    0.0000 C   0  0  0  0  0  4  0  0  0  0  0  0
    6.4302   -6.1875    0.0000 C   0  0  0  0  0  4  0  0  0  0  0  0
    6.4302   -7.0125    0.0000 F   0  0  0  0  0  1  0  0  0  0  0  0
    5.6052   -6.1875    0.0000 F   0  0  0  0  0  1  0  0  0  0  0  0
    7.2552   -6.1875    0.0000 F   0  0  0  0  0  1  0  0  0  0  0  0
  1  2  1  0  0  0  0 
  2  3  1  0  0  0  0 
  2  4  1  0  0  0  0 
  4  5  1  0  0  0  0 
  5  6  2  0  0  0  0 
  5  7  2  0  0  0  0 
  5  8  1  0  0  0  0 
  8  9  2  0  0  0  0 
  9 10  1  0  0  0  0 
 10 11  2  0  0  0  0 
 11 12  1  0  0  0  0 
 11 13  1  0  0  0  0 
 13 14  2  0  0  0  0 
  8 14  1  0  0  0  0 
  2 15  1  0  0  0  0 
 15 16  2  0  0  0  0 
 15 17  1  0  0  0  0 
 17 18  1  0  0  0  0 
 18 19  2  0  0  0  0 
 19 20  1  0  0  0  0 
 20 21  2  0  0  0  0 
 21 22  1  0  0  0  0 
 22 23  3  0  0  0  0 
 21 24  1  0  0  0  0 
 24 25  2  0  0  0  0 
 18 25  1  0  0  0  0 
 24 26  1  0  0  0  0 
 26 27  1  0  0  0  0 
 26 28  1  0  0  0  0 
 26 29  1  0  0  0  0 
M  END
> <Mol Weight>
430.373

> <Formula>
C18H14F4N2O4S

> <CdId>
73

> <RCDK_LipinskiFailures>
0

> <source>
BYLER

> <name>
bicalutamide

> <ABUNDANCE>
100% at pH 4.8

> <BLABBER_CHARGE>


> <inchi>
1S/C18H14F4N2O4S/c1-17(26,10-29(27,28)14-6-3-12(19)4-7-14)16(25)24-13-5-2-11(9-23)15(8-13)18(20,21)22/h2-8,26H,10H2,1H3,(H,24,25)

> <activity>
0

$$$$

  CDK     0331111707

 13 13  0  0  0  0  0  0  0  0999 V2000
    0.7145    4.5375    0.0000 C   0  0  0  0  0  4  0  0  0  0  0  0
    0.7145    3.7125    0.0000 N   0  0  0  0  0  4  0  0  0  0  0  0
   -0.0000    3.3000    0.0000 C   0  0  0  0  0  4  0  0  0  0  0  0
   -0.7145    3.7125    0.0000 N   0  0  0  0  0  3  0  0  0  0  0  0
   -1.4289    3.3000    0.0000 C   0  0  0  0  0  4  0  0  0  0  0  0
   -0.0000    2.4750    0.0000 N   0  0  0  0  0  3  0  0  0  0  0  0
    0.7145    2.0625    0.0000 C   0  0  0  0  0  4  0  0  0  0  0  0
    0.7145    1.2375    0.0000 C   0  0  0  0  0  4  0  0  0  0  0  0
    1.4289    0.8250    0.0000 C   0  0  0  0  0  4  0  0  0  0  0  0
    1.4289    0.0000    0.0000 C   0  0  0  0  0  4  0  0  0  0  0  0
    0.7145   -0.4125    0.0000 C   0  0  0  0  0  4  0  0  0  0  0  0
    0.0000   -0.0000    0.0000 C   0  0  0  0  0  4  0  0  0  0  0  0
   -0.0000    0.8250    0.0000 C   0  0  0  0  0  4  0  0  0  0  0  0
  2  1  1  4  0  0  0 
  2  3  2  0  0  0  0 
  3  4  1  0  0  0  0 
  4  5  1  0  0  0  0 
  3  6  1  0  0  0  0 
  6  7  1  0  0  0  0 
  7  8  1  0  0  0  0 
  8  9  2  0  0  0  0 
  9 10  1  0  0  0  0 
 10 11  2  0  0  0  0 
 11 12  1  0  0  0  0 
 12 13  2  0  0  0  0 
  8 13  1  0  0  0  0 
M  CHG  1   2   1
M  END
> <Mol Weight>
177.2462

> <Formula>
C10H15N3

> <CdId>
72

> <RCDK_LipinskiFailures>
0

> <source>
FDA

> <name>
Bethanidine

> <ABUNDANCE>
100% at pH 4.8

> <BLABBER_CHARGE>
1

> <CHECK TAUTOMER>
Multiple tautomers in input structure. Results could be inaccurate.

> <inchi>
1S/C10H15N3/c1-11-10(12-2)13-8-9-6-4-3-5-7-9/h3-7H,8H2,1-2H3,(H2,11,12,13)

> <activity>
0

$$$$

  CDK     0331111707

 36 39  0  0  0  0  0  0  0  0999 V2000
    1.8216   -5.0612    0.0000 C   0  0  0  0  0  4  0  0  0  0  0  0
    2.5045   -4.5982    0.0000 C   0  0  0  0  0  4  0  0  0  0  0  0
    3.2469   -4.9580    0.0000 C   0  0  0  0  0  4  0  0  0  0  0  0
    2.4450   -3.7753    0.0000 C   0  0  0  0  0  4  0  0  0  0  0  0
    1.7026   -3.4155    0.0000 O   0  0  0  0  0  2  0  0  0  0  0  0
    3.1278   -3.3123    0.0000 O   0  0  0  0  0  2  0  0  0  0  0  0
    3.0683   -2.4895    0.0000 C   0  0  0  0  0  4  0  0  0  0  0  0
    2.8390   -1.6970    0.0000 C   0  0  0  0  0  4  0  0  0  0  0  0
    2.0630   -1.4167    0.0000 C   0  0  0  0  0  4  0  0  0  0  0  0
    3.5218   -1.2340    0.0000 C   0  0  0  0  0  4  0  0  0  0  0  0
    4.1731   -1.7404    0.0000 C   0  0  0  0  0  4  0  0  0  0  0  0
    4.9853   -1.5952    0.0000 C   0  0  0  0  0  4  0  0  0  0  0  0
    5.2655   -0.8192    0.0000 C   0  0  0  0  0  4  0  0  0  0  0  0
    6.0777   -0.6740    0.0000 C   0  0  0  0  0  4  0  0  0  0  0  0
    6.6095   -1.3047    0.0000 C   0  0  0  0  0  4  0  0  0  0  0  0
    7.4216   -1.1595    0.0000 C   0  0  0  0  0  4  0  0  0  0  0  0
    7.9534   -1.7902    0.0000 C   0  0  0  0  0  4  0  0  0  0  0  0
    8.7655   -1.6450    0.0000 O   0  0  0  0  0  2  0  0  0  0  0  0
    7.6731   -2.5662    0.0000 C   0  0  0  0  0  4  0  0  0  0  0  0
    6.8610   -2.7114    0.0000 C   0  0  0  0  0  4  0  0  0  0  0  0
    6.3292   -2.0807    0.0000 C   0  0  0  0  0  4  0  0  0  0  0  0
    6.0489   -2.8566    0.0000 C   0  0  0  0  0  4  0  0  0  0  0  0
    5.5171   -2.2259    0.0000 C   0  0  0  0  0  4  0  0  0  0  0  0
    5.5766   -3.0487    0.0000 F   0  0  0  0  0  1  0  0  0  0  0  0
    5.2368   -3.0018    0.0000 C   0  0  0  0  0  4  0  0  0  0  0  0
    5.7686   -3.6325    0.0000 O   0  0  0  0  0  2  0  0  0  0  0  0
    4.4247   -3.1470    0.0000 C   0  0  0  0  0  4  0  0  0  0  0  0
    3.8928   -2.5163    0.0000 C   0  0  0  0  0  4  0  0  0  0  0  0
    3.5330   -3.2587    0.0000 C   0  0  0  0  0  4  0  0  0  0  0  0
    2.2561   -2.6347    0.0000 C   0  0  0  0  0  4  0  0  0  0  0  0
    1.5733   -3.0977    0.0000 O   0  0  0  0  0  2  0  0  0  0  0  0
    1.7243   -2.0040    0.0000 C   0  0  0  0  0  4  0  0  0  0  0  0
    0.9122   -2.1492    0.0000 O   0  0  0  0  0  2  0  0  0  0  0  0
    0.3804   -1.5185    0.0000 C   0  0  0  0  0  4  0  0  0  0  0  0
   -0.4317   -1.6637    0.0000 C   0  0  0  0  0  4  0  0  0  0  0  0
    0.6607   -0.7426    0.0000 O   0  0  0  0  0  2  0  0  0  0  0  0
  1  2  1  0  0  0  0 
  2  3  1  0  0  0  0 
  2  4  1  0  0  0  0 
  4  5  2  0  0  0  0 
  4  6  1  0  0  0  0 
  6  7  1  0  0  0  0 
  7  8  1  0  0  0  0 
  8  9  1  0  0  0  0 
  8 10  1  0  0  0  0 
 10 11  1  0  0  0  0 
 11 12  1  0  0  0  0 
 12 13  1  0  0  0  0 
 13 14  1  0  0  0  0 
 14 15  1  0  0  0  0 
 15 16  2  0  0  0  0 
 16 17  1  0  0  0  0 
 17 18  2  0  0  0  0 
 17 19  1  0  0  0  0 
 19 20  2  0  0  0  0 
 20 21  1  0  0  0  0 
 15 21  1  0  0  0  0 
 21 22  1  0  0  0  0 
 21 23  1  0  0  0  0 
 12 23  1  0  0  0  0 
 23 24  1  0  0  0  0 
 23 25  1  0  0  0  0 
 25 26  1  0  0  0  0 
 25 27  1  0  0  0  0 
 27 28  1  0  0  0  0 
 11 28  1  0  0  0  0 
  7 28  1  0  0  0  0 
 28 29  1  0  0  0  0 
  7 30  1  0  0  0  0 
 30 31  2  0  0  0  0 
 30 32  1  0  0  0  0 
 32 33  1  0  0  0  0 
 33 34  1  0  0  0  0 
 34 35  1  0  0  0  0 
 34 36  2  0  0  0  0 
M  END
> <Mol Weight>
504.5876

> <Formula>
C28H37FO7

> <CdId>
70

> <RCDK_LipinskiFailures>
0

> <source>
FDA

> <name>
Betamethasone acibutate

> <ABUNDANCE>
100% at pH 4.8

> <BLABBER_CHARGE>


> <inchi>
1S/C28H37FO7/c1-15(2)24(34)36-28(23(33)14-35-17(4)30)16(3)11-21-20-8-7-18-12-19(31)9-10-25(18,5)27(20,29)22(32)13-26(21,28)6/h9-10,12,15-16,20-22,32H,7-8,11,13-14H2,1-6H3

> <activity>
0

$$$$

  CDK     0331111707

 31 34  0  0  0  0  0  0  0  0999 V2000
   -0.4317   -1.6637    0.0000 C   0  0  0  0  0  4  0  0  0  0  0  0
    0.3804   -1.5185    0.0000 C   0  0  0  0  0  4  0  0  0  0  0  0
    0.6607   -0.7426    0.0000 O   0  0  0  0  0  2  0  0  0  0  0  0
    0.9122   -2.1492    0.0000 O   0  0  0  0  0  2  0  0  0  0  0  0
    1.7243   -2.0040    0.0000 C   0  0  0  0  0  4  0  0  0  0  0  0
    2.2561   -2.6347    0.0000 C   0  0  0  0  0  4  0  0  0  0  0  0
    1.9758   -3.4106    0.0000 O   0  0  0  0  0  2  0  0  0  0  0  0
    3.0683   -2.4895    0.0000 C   0  0  0  0  0  4  0  0  0  0  0  0
    3.1278   -3.3123    0.0000 O   0  0  0  0  0  2  0  0  0  0  0  0
    2.8390   -1.6970    0.0000 C   0  0  0  0  0  4  0  0  0  0  0  0
    2.0630   -1.4167    0.0000 C   0  0  0  0  0  4  0  0  0  0  0  0
    3.5218   -1.2340    0.0000 C   0  0  0  0  0  4  0  0  0  0  0  0
    4.1731   -1.7404    0.0000 C   0  0  0  0  0  4  0  0  0  0  0  0
    4.9853   -1.5952    0.0000 C   0  0  0  0  0  4  0  0  0  0  0  0
    5.2655   -0.8192    0.0000 C   0  0  0  0  0  4  0  0  0  0  0  0
    6.0777   -0.6740    0.0000 C   0  0  0  0  0  4  0  0  0  0  0  0
    6.6095   -1.3047    0.0000 C   0  0  0  0  0  4  0  0  0  0  0  0
    7.4216   -1.1595    0.0000 C   0  0  0  0  0  4  0  0  0  0  0  0
    7.9534   -1.7902    0.0000 C   0  0  0  0  0  4  0  0  0  0  0  0
    8.7655   -1.6450    0.0000 O   0  0  0  0  0  2  0  0  0  0  0  0
    7.6731   -2.5662    0.0000 C   0  0  0  0  0  4  0  0  0  0  0  0
    6.8610   -2.7114    0.0000 C   0  0  0  0  0  4  0  0  0  0  0  0
    6.3292   -2.0807    0.0000 C   0  0  0  0  0  4  0  0  0  0  0  0
    6.0489   -2.8566    0.0000 C   0  0  0  0  0  4  0  0  0  0  0  0
    5.5171   -2.2259    0.0000 C   0  0  0  0  0  4  0  0  0  0  0  0
    5.5766   -3.0487    0.0000 F   0  0  0  0  0  1  0  0  0  0  0  0
    5.2368   -3.0018    0.0000 C   0  0  0  0  0  4  0  0  0  0  0  0
    5.7686   -3.6325    0.0000 O   0  0  0  0  0  2  0  0  0  0  0  0
    4.4247   -3.1470    0.0000 C   0  0  0  0  0  4  0  0  0  0  0  0
    3.8928   -2.5163    0.0000 C   0  0  0  0  0  4  0  0  0  0  0  0
    3.5330   -3.2587    0.0000 C   0  0  0  0  0  4  0  0  0  0  0  0
  1  2  1  0  0  0  0 
  2  3  2  0  0  0  0 
  2  4  1  0  0  0  0 
  4  5  1  0  0  0  0 
  5  6  1  0  0  0  0 
  6  7  2  0  0  0  0 
  6  8  1  0  0  0  0 
  8  9  1  0  0  0  0 
  8 10  1  0  0  0  0 
 10 11  1  0  0  0  0 
 10 12  1  0  0  0  0 
 12 13  1  0  0  0  0 
 13 14  1  0  0  0  0 
 14 15  1  0  0  0  0 
 15 16  1  0  0  0  0 
 16 17  1  0  0  0  0 
 17 18  2  0  0  0  0 
 18 19  1  0  0  0  0 
 19 20  2  0  0  0  0 
 19 21  1  0  0  0  0 
 21 22  2  0  0  0  0 
 22 23  1  0  0  0  0 
 17 23  1  0  0  0  0 
 23 24  1  0  0  0  0 
 23 25  1  0  0  0  0 
 14 25  1  0  0  0  0 
 25 26  1  0  0  0  0 
 25 27  1  0  0  0  0 
 27 28  1  0  0  0  0 
 27 29  1  0  0  0  0 
 29 30  1  0  0  0  0 
 13 30  1  0  0  0  0 
  8 30  1  0  0  0  0 
 30 31  1  0  0  0  0 
M  END
> <Mol Weight>
434.4977

> <Formula>
C24H31FO6

> <CdId>
69

> <RCDK_LipinskiFailures>
0

> <source>
FDA

> <name>
Betamethasone acetate

> <ABUNDANCE>
99.99% at pH 4.8

> <BLABBER_CHARGE>


> <inchi>
1S/C24H31FO6/c1-13-9-18-17-6-5-15-10-16(27)7-8-21(15,3)23(17,25)19(28)11-22(18,4)24(13,30)20(29)12-31-14(2)26/h7-8,10,13,17-19,28,30H,5-6,9,11-12H2,1-4H3

> <activity>
0

$$$$

  CDK     0331111707

  8  7  0  0  0  0  0  0  0  0999 V2000
    0.4125    2.1434    0.0000 C   0  0  0  0  0  4  0  0  0  0  0  0
    0.8250    1.4289    0.0000 N   0  0  0  0  0  4  0  0  0  0  0  0
    0.1105    1.0164    0.0000 C   0  0  0  0  0  4  0  0  0  0  0  0
    1.5395    1.8414    0.0000 C   0  0  0  0  0  4  0  0  0  0  0  0
    1.2375    0.7145    0.0000 C   0  0  0  0  0  4  0  0  0  0  0  0
    0.8250    0.0000    0.0000 C   0  0  0  0  0  4  0  0  0  0  0  0
    1.2375   -0.7145    0.0000 O   0  0  0  0  0  2  0  0  0  0  0  0
    0.0000    0.0000    0.0000 O   0  0  0  0  0  1  0  0  0  0  0  0
  1  2  1  0  0  0  0 
  2  3  1  0  0  0  0 
  2  4  1  0  0  0  0 
  2  5  1  0  0  0  0 
  5  6  1  0  0  0  0 
  6  7  2  0  0  0  0 
  6  8  1  0  0  0  0 
M  CHG  1   2   1
M  CHG  1   8  -1
M  END
> <Mol Weight>
118.1543

> <Formula>
C5H12NO2

> <CdId>
68

> <RCDK_LipinskiFailures>
0

> <source>
FDA

> <name>
Betaine

> <ABUNDANCE>
99.87% at pH 4.8

> <BLABBER_CHARGE>
0

> <inchi>
1S/C5H11NO2/c1-6(2,3)4-5(7)8/h4H2,1-3H3/p+1

> <activity>
0

$$$$

  CDK     0331111707

 27 29  0  0  0  0  0  0  0  0999 V2000
   -2.7792   -4.5927    0.0000 C   0  0  0  0  0  4  0  0  0  0  0  0
   -1.9690   -4.7486    0.0000 C   0  0  0  0  0  4  0  0  0  0  0  0
   -1.6990   -5.5282    0.0000 C   0  0  0  0  0  4  0  0  0  0  0  0
   -1.4289   -4.1250    0.0000 C   0  0  0  0  0  4  0  0  0  0  0  0
   -0.6188   -4.2809    0.0000 O   0  0  0  0  0  2  0  0  0  0  0  0
   -0.0787   -3.6573    0.0000 C   0  0  0  0  0  4  0  0  0  0  0  0
    0.7314   -3.8132    0.0000 C   0  0  0  0  0  4  0  0  0  0  0  0
    1.2715   -3.1895    0.0000 C   0  0  0  0  0  4  0  0  0  0  0  0
    2.0816   -3.3454    0.0000 N   0  0  0  0  0  3  0  0  0  0  0  0
    2.3517   -4.1250    0.0000 C   0  0  0  0  0  4  0  0  0  0  0  0
    3.1618   -4.2809    0.0000 C   0  0  0  0  0  4  0  0  0  0  0  0
    3.7019   -3.6573    0.0000 C   0  0  0  0  0  4  0  0  0  0  0  0
    4.5120   -3.8132    0.0000 C   0  0  0  0  0  4  0  0  0  0  0  0
    4.7821   -4.5927    0.0000 C   0  0  0  0  0  4  0  0  0  0  0  0
    4.2420   -5.2164    0.0000 C   0  0  0  0  0  4  0  0  0  0  0  0
    3.4319   -5.0605    0.0000 C   0  0  0  0  0  4  0  0  0  0  0  0
    2.6217   -2.7218    0.0000 C   0  0  0  0  0  4  0  0  0  0  0  0
    2.3517   -1.9423    0.0000 C   0  0  0  0  0  4  0  0  0  0  0  0
    2.8918   -1.3186    0.0000 C   0  0  0  0  0  4  0  0  0  0  0  0
    3.7019   -1.4745    0.0000 C   0  0  0  0  0  4  0  0  0  0  0  0
    3.9720   -2.2541    0.0000 C   0  0  0  0  0  4  0  0  0  0  0  0
    3.4319   -2.8777    0.0000 C   0  0  0  0  0  4  0  0  0  0  0  0
    1.0015   -4.5927    0.0000 N   0  0  0  0  0  4  0  0  0  0  0  0
    1.7909   -4.8325    0.0000 C   0  0  0  0  0  4  0  0  0  0  0  0
    1.8068   -5.6573    0.0000 C   0  0  0  0  0  4  0  0  0  0  0  0
    1.0272   -5.9274    0.0000 C   0  0  0  0  0  4  0  0  0  0  0  0
    0.5295   -5.2694    0.0000 C   0  0  0  0  0  4  0  0  0  0  0  0
  1  2  1  0  0  0  0 
  2  3  1  0  0  0  0 
  2  4  1  0  0  0  0 
  4  5  1  0  0  0  0 
  5  6  1  0  0  0  0 
  6  7  1  0  0  0  0 
  7  8  1  0  0  0  0 
  8  9  1  0  0  0  0 
  9 10  1  0  0  0  0 
 10 11  1  0  0  0  0 
 11 12  2  0  0  0  0 
 12 13  1  0  0  0  0 
 13 14  2  0  0  0  0 
 14 15  1  0  0  0  0 
 15 16  2  0  0  0  0 
 11 16  1  0  0  0  0 
  9 17  1  0  0  0  0 
 17 18  2  0  0  0  0 
 18 19  1  0  0  0  0 
 19 20  2  0  0  0  0 
 20 21  1  0  0  0  0 
 21 22  2  0  0  0  0 
 17 22  1  0  0  0  0 
  7 23  1  0  0  0  0 
 23 24  1  0  0  0  0 
 24 25  1  0  0  0  0 
 25 26  1  0  0  0  0 
 26 27  1  0  0  0  0 
 23 27  1  0  0  0  0 
M  CHG  1  23   1
M  END
> <Mol Weight>
366.5396

> <Formula>
C24H34N2O

> <CdId>
66

> <RCDK_LipinskiFailures>
0

> <source>
FDA

> <name>
Bepridil

> <ABUNDANCE>
96.55% at pH 4.8

> <BLABBER_CHARGE>
1

> <inchi>
1S/C24H34N2O/c1-21(2)19-27-20-24(25-15-9-10-16-25)18-26(23-13-7-4-8-14-23)17-22-11-5-3-6-12-22/h3-8,11-14,21,24H,9-10,15-20H2,1-2H3

> <activity>
0

$$$$

  CDK     0331111707

 14 15  0  0  0  0  0  0  0  0999 V2000
   -0.7145   -0.4125    0.0000 O   0  0  0  0  0  2  0  0  0  0  0  0
    0.0000    0.0000    0.0000 C   0  0  0  0  0  4  0  0  0  0  0  0
    0.0000    0.8250    0.0000 O   0  0  0  0  0  1  0  0  0  0  0  0
    0.7145   -0.4125    0.0000 C   0  0  0  0  0  4  0  0  0  0  0  0
    1.4289    0.0000    0.0000 C   0  0  0  0  0  4  0  0  0  0  0  0
    2.1434   -0.4125    0.0000 C   0  0  0  0  0  4  0  0  0  0  0  0
    2.8579    0.0000    0.0000 C   0  0  0  0  0  4  0  0  0  0  0  0
    3.5724   -0.4125    0.0000 C   0  0  0  0  0  4  0  0  0  0  0  0
    3.5724   -1.2375    0.0000 C   0  0  0  0  0  4  0  0  0  0  0  0
    2.8579   -1.6500    0.0000 C   0  0  0  0  0  4  0  0  0  0  0  0
    2.1434   -1.2375    0.0000 C   0  0  0  0  0  4  0  0  0  0  0  0
    1.4289   -1.6500    0.0000 C   0  0  0  0  0  4  0  0  0  0  0  0
    0.7145   -1.2375    0.0000 C   0  0  0  0  0  4  0  0  0  0  0  0
    0.0000   -1.6500    0.0000 O   0  0  0  0  0  2  0  0  0  0  0  0
  1  2  2  0  0  0  0 
  2  3  1  0  0  0  0 
  2  4  1  0  0  0  0 
  4  5  2  0  0  0  0 
  5  6  1  0  0  0  0 
  6  7  2  0  0  0  0 
  7  8  1  0  0  0  0 
  8  9  2  0  0  0  0 
  9 10  1  0  0  0  0 
 10 11  2  0  0  0  0 
  6 11  1  0  0  0  0 
 11 12  1  0  0  0  0 
 12 13  2  0  0  0  0 
  4 13  1  0  0  0  0 
 13 14  1  0  0  0  0 
M  CHG  1   3  -1
M  END
> <Mol Weight>
188.1794

> <Formula>
C11H8O3

> <CdId>
65

> <RCDK_LipinskiFailures>
0

> <source>
FDA

> <name>
Bephenium hydroxynaphthoate

> <ABUNDANCE>
98.88% at pH 4.8

> <BLABBER_CHARGE>
-1

> <inchi>
1S/C11H8O3/c12-10-6-8-4-2-1-3-7(8)5-9(10)11(13)14/h1-6,12H,(H,13,14)

> <activity>
0

$$$$

  CDK     0331111707

  8  8  0  0  0  0  0  0  0  0999 V2000
   -0.0000    2.4750    0.0000 O   0  0  0  0  0  2  0  0  0  0  0  0
    0.7145    2.0625    0.0000 C   0  0  0  0  0  4  0  0  0  0  0  0
    0.7145    1.2375    0.0000 C   0  0  0  0  0  4  0  0  0  0  0  0
    1.4289    0.8250    0.0000 C   0  0  0  0  0  4  0  0  0  0  0  0
    1.4289    0.0000    0.0000 C   0  0  0  0  0  4  0  0  0  0  0  0
    0.7145   -0.4125    0.0000 C   0  0  0  0  0  4  0  0  0  0  0  0
    0.0000   -0.0000    0.0000 C   0  0  0  0  0  4  0  0  0  0  0  0
   -0.0000    0.8250    0.0000 C   0  0  0  0  0  4  0  0  0  0  0  0
  1  2  1  0  0  0  0 
  2  3  1  0  0  0  0 
  3  4  2  0  0  0  0 
  4  5  1  0  0  0  0 
  5  6  2  0  0  0  0 
  6  7  1  0  0  0  0 
  7  8  2  0  0  0  0 
  3  8  1  0  0  0  0 
M  END
> <Mol Weight>
108.1378

> <Formula>
C7H8O

> <CdId>
64

> <RCDK_LipinskiFailures>
0

> <source>
FDA

> <name>
Benzyl alcohol

> <ABUNDANCE>
100% at pH 4.8

> <BLABBER_CHARGE>


> <inchi>
1S/C7H8O/c8-6-7-4-2-1-3-5-7/h1-5,8H,6H2

> <activity>
0

$$$$

  CDK     0331111707

 23 26  0  0  0  0  0  0  0  0999 V2000
    0.0773    0.5912    0.0000 C   0  0  0  0  0  4  0  0  0  0  0  0
    0.4999   -0.1173    0.0000 N   0  0  0  0  0  4  0  0  0  0  0  0
    1.0605   -0.5572    0.0000 C   0  0  0  0  0  4  0  0  0  0  0  0
    0.7400   -1.2658    0.0000 C   0  0  0  0  0  4  0  0  0  0  0  0
    0.1197   -1.6427    0.0000 C   0  0  0  0  0  4  0  0  0  0  0  0
    0.6396   -0.9304    0.0000 C   0  0  0  0  0  4  0  0  0  0  0  0
    1.6113   -0.9304    0.0000 C   0  0  0  0  0  4  0  0  0  0  0  0
    2.1275   -1.3591    0.0000 C   0  0  0  0  0  4  0  0  0  0  0  0
    1.9893   -0.5417    0.0000 C   0  0  0  0  0  4  0  0  0  0  0  0
    2.5393   -2.0740    0.0000 O   0  0  0  0  0  2  0  0  0  0  0  0
    3.3643   -2.0748    0.0000 C   0  0  0  0  0  4  0  0  0  0  0  0
    3.7761   -2.7897    0.0000 C   0  0  0  0  0  4  0  0  0  0  0  0
    4.6011   -2.7905    0.0000 C   0  0  0  0  0  4  0  0  0  0  0  0
    5.0129   -3.5054    0.0000 C   0  0  0  0  0  4  0  0  0  0  0  0
    4.5997   -4.2194    0.0000 C   0  0  0  0  0  4  0  0  0  0  0  0
    3.7747   -4.2186    0.0000 C   0  0  0  0  0  4  0  0  0  0  0  0
    3.3629   -3.5037    0.0000 C   0  0  0  0  0  4  0  0  0  0  0  0
    3.7775   -1.3607    0.0000 C   0  0  0  0  0  4  0  0  0  0  0  0
    3.3657   -0.6458    0.0000 C   0  0  0  0  0  4  0  0  0  0  0  0
    3.7789    0.0682    0.0000 C   0  0  0  0  0  4  0  0  0  0  0  0
    4.6039    0.0674    0.0000 C   0  0  0  0  0  4  0  0  0  0  0  0
    5.0157   -0.6475    0.0000 C   0  0  0  0  0  4  0  0  0  0  0  0
    4.6025   -1.3615    0.0000 C   0  0  0  0  0  4  0  0  0  0  0  0
  1  2  1  0  0  0  0 
  2  3  1  0  0  0  0 
  3  4  1  0  0  0  0 
  4  5  1  0  0  0  0 
  5  6  1  0  0  0  0 
  2  6  1  0  0  0  0 
  6  7  1  0  0  0  0 
  7  8  1  0  0  0  0 
  8  9  1  0  0  0  0 
  3  9  1  0  0  0  0 
  8 10  1  0  0  0  0 
 10 11  1  0  0  0  0 
 11 12  1  0  0  0  0 
 12 13  2  0  0  0  0 
 13 14  1  0  0  0  0 
 14 15  2  0  0  0  0 
 15 16  1  0  0  0  0 
 16 17  2  0  0  0  0 
 12 17  1  0  0  0  0 
 11 18  1  0  0  0  0 
 18 19  2  0  0  0  0 
 19 20  1  0  0  0  0 
 20 21  2  0  0  0  0 
 21 22  1  0  0  0  0 
 22 23  2  0  0  0  0 
 18 23  1  0  0  0  0 
M  CHG  1   2   1
M  END
> <Mol Weight>
307.4293

> <Formula>
C21H25NO

> <CdId>
63

> <RCDK_LipinskiFailures>
0

> <source>
FDA

> <name>
Benztropine

> <ABUNDANCE>
100% at pH 4.8

> <BLABBER_CHARGE>
1

> <inchi>
1S/C21H25NO/c1-22-18-12-13-19(22)15-20(14-18)23-21(16-8-4-2-5-9-16)17-10-6-3-7-11-17/h2-11,18-21H,12-15H2,1H3

> <activity>
0

$$$$

  CDK     0331111707

 29 31  0  0  0  0  0  0  0  0999 V2000
   -0.4421   -2.2539    0.0000 C   0  0  0  0  0  4  0  0  0  0  0  0
   -0.0296   -1.5395    0.0000 C   0  0  0  0  0  4  0  0  0  0  0  0
    0.7954   -1.5395    0.0000 N   0  0  0  0  0  3  0  0  0  0  0  0
    1.2079   -2.2539    0.0000 C   0  0  0  0  0  4  0  0  0  0  0  0
    0.7954   -2.9684    0.0000 C   0  0  0  0  0  4  0  0  0  0  0  0
    1.2079   -0.8250    0.0000 C   0  0  0  0  0  4  0  0  0  0  0  0
    0.7954   -0.1105    0.0000 O   0  0  0  0  0  2  0  0  0  0  0  0
    2.0329   -0.8250    0.0000 C   0  0  0  0  0  4  0  0  0  0  0  0
    2.4454   -0.1105    0.0000 C   0  0  0  0  0  4  0  0  0  0  0  0
    3.2704   -0.1105    0.0000 N   0  0  0  0  0  4  0  0  0  0  0  0
    3.6829    0.6039    0.0000 C   0  0  0  0  0  4  0  0  0  0  0  0
    4.5079    0.6039    0.0000 C   0  0  0  0  0  4  0  0  0  0  0  0
    4.9204   -0.1105    0.0000 C   0  0  0  0  0  4  0  0  0  0  0  0
    5.7454   -0.1105    0.0000 C   0  0  0  0  0  4  0  0  0  0  0  0
    6.1579   -0.8250    0.0000 C   0  0  0  0  0  4  0  0  0  0  0  0
    6.9829   -0.8250    0.0000 O   0  0  0  0  0  2  0  0  0  0  0  0
    7.3954   -0.1105    0.0000 C   0  0  0  0  0  4  0  0  0  0  0  0
    5.7454   -1.5395    0.0000 C   0  0  0  0  0  4  0  0  0  0  0  0
    4.9204   -1.5395    0.0000 C   0  0  0  0  0  4  0  0  0  0  0  0
    4.5079   -0.8250    0.0000 C   0  0  0  0  0  4  0  0  0  0  0  0
    3.6829   -0.8250    0.0000 C   0  0  0  0  0  4  0  0  0  0  0  0
    3.2704   -1.5395    0.0000 C   0  0  0  0  0  4  0  0  0  0  0  0
    2.4454   -1.5395    0.0000 C   0  0  0  0  0  4  0  0  0  0  0  0
    2.0329   -2.2539    0.0000 O   0  0  0  0  0  2  0  0  0  0  0  0
    2.4454   -2.9684    0.0000 C   0  0  0  0  0  4  0  0  0  0  0  0
    3.2704   -2.9684    0.0000 C   0  0  0  0  0  4  0  0  0  0  0  0
    2.0329   -3.6829    0.0000 O   0  0  0  0  0  2  0  0  0  0  0  0
    6.1579   -2.2539    0.0000 O   0  0  0  0  0  2  0  0  0  0  0  0
    5.7454   -2.9684    0.0000 C   0  0  0  0  0  4  0  0  0  0  0  0
  1  2  1  0  0  0  0 
  2  3  1  0  0  0  0 
  3  4  1  0  0  0  0 
  4  5  1  0  0  0  0 
  3  6  1  0  0  0  0 
  6  7  2  0  0  0  0 
  6  8  1  0  0  0  0 
  8  9  1  0  0  0  0 
  9 10  1  0  0  0  0 
 10 11  1  0  0  0  0 
 11 12  1  0  0  0  0 
 12 13  1  0  0  0  0 
 13 14  2  0  0  0  0 
 14 15  1  0  0  0  0 
 15 16  1  0  0  0  0 
 16 17  1  0  0  0  0 
 15 18  2  0  0  0  0 
 18 19  1  0  0  0  0 
 19 20  2  0  0  0  0 
 13 20  1  0  0  0  0 
 20 21  1  0  0  0  0 
 10 21  1  0  0  0  0 
 21 22  1  0  0  0  0 
 22 23  1  0  0  0  0 
  8 23  1  0  0  0  0 
 23 24  1  0  0  0  0 
 24 25  1  0  0  0  0 
 25 26  1  0  0  0  0 
 25 27  2  0  0  0  0 
 18 28  1  0  0  0  0 
 28 29  1  0  0  0  0 
M  CHG  1  10   1
M  END
> <Mol Weight>
404.4999

> <Formula>
C22H32N2O5

> <CdId>
62

> <RCDK_LipinskiFailures>
0

> <source>
FDA

> <name>
Benzquinamide

> <ABUNDANCE>
99.24% at pH 4.8

> <BLABBER_CHARGE>
1

> <inchi>
1S/C22H32N2O5/c1-6-23(7-2)22(26)17-13-24-9-8-15-10-20(27-4)21(28-5)11-16(15)18(24)12-19(17)29-14(3)25/h10-11,17-19H,6-9,12-13H2,1-5H3

> <activity>
0

$$$$

  CDK     0331111707

 23 24  0  0  0  0  0  0  0  0999 V2000
   -0.7145   -0.4125    0.0000 C   0  0  0  0  0  4  0  0  0  0  0  0
   -0.7145   -1.2375    0.0000 C   0  0  0  0  0  4  0  0  0  0  0  0
   -1.4289   -1.6500    0.0000 O   0  0  0  0  0  2  0  0  0  0  0  0
    0.0000   -1.6500    0.0000 N   0  0  0  0  0  3  0  0  0  0  0  0
    0.0000   -2.4750    0.0000 C   0  0  0  0  0  4  0  0  0  0  0  0
    0.7145   -2.8875    0.0000 C   0  0  0  0  0  4  0  0  0  0  0  0
    0.7145   -3.7125    0.0000 C   0  0  0  0  0  4  0  0  0  0  0  0
    0.0000   -4.1250    0.0000 C   0  0  0  0  0  4  0  0  0  0  0  0
   -0.7145   -3.7125    0.0000 C   0  0  0  0  0  4  0  0  0  0  0  0
   -0.7145   -2.8875    0.0000 C   0  0  0  0  0  4  0  0  0  0  0  0
    0.0000   -4.9500    0.0000 O   0  0  0  0  0  2  0  0  0  0  0  0
   -0.7145   -5.3625    0.0000 C   0  0  0  0  0  4  0  0  0  0  0  0
   -1.4289   -4.9500    0.0000 O   0  0  0  0  0  2  0  0  0  0  0  0
   -0.7145   -6.1875    0.0000 C   0  0  0  0  0  4  0  0  0  0  0  0
    0.0000   -6.6000    0.0000 C   0  0  0  0  0  4  0  0  0  0  0  0
   -0.0000   -7.4250    0.0000 C   0  0  0  0  0  4  0  0  0  0  0  0
   -0.7145   -7.8375    0.0000 C   0  0  0  0  0  4  0  0  0  0  0  0
   -1.4289   -7.4250    0.0000 C   0  0  0  0  0  4  0  0  0  0  0  0
   -1.4289   -6.6000    0.0000 C   0  0  0  0  0  4  0  0  0  0  0  0
   -2.1434   -6.1875    0.0000 O   0  0  0  0  0  2  0  0  0  0  0  0
   -2.8579   -6.6000    0.0000 C   0  0  0  0  0  4  0  0  0  0  0  0
   -2.8579   -7.4250    0.0000 C   0  0  0  0  0  4  0  0  0  0  0  0
   -3.5724   -6.1875    0.0000 O   0  0  0  0  0  2  0  0  0  0  0  0
  1  2  1  0  0  0  0 
  2  3  2  0  0  0  0 
  2  4  1  0  0  0  0 
  4  5  1  0  0  0  0 
  5  6  2  0  0  0  0 
  6  7  1  0  0  0  0 
  7  8  2  0  0  0  0 
  8  9  1  0  0  0  0 
  9 10  2  0  0  0  0 
  5 10  1  0  0  0  0 
  8 11  1  0  0  0  0 
 11 12  1  0  0  0  0 
 12 13  2  0  0  0  0 
 12 14  1  0  0  0  0 
 14 15  2  0  0  0  0 
 15 16  1  0  0  0  0 
 16 17  2  0  0  0  0 
 17 18  1  0  0  0  0 
 18 19  2  0  0  0  0 
 14 19  1  0  0  0  0 
 19 20  1  0  0  0  0 
 20 21  1  0  0  0  0 
 21 22  1  0  0  0  0 
 21 23  2  0  0  0  0 
M  END
> <Mol Weight>
313.3047

> <Formula>
C17H15NO5

> <CdId>
60

> <RCDK_LipinskiFailures>
0

> <source>
FDA

> <name>
Benorylate

> <ABUNDANCE>
100% at pH 4.8

> <BLABBER_CHARGE>


> <inchi>
1S/C17H15NO5/c1-11(19)18-13-7-9-14(10-8-13)23-17(21)15-5-3-4-6-16(15)22-12(2)20/h3-10H,1-2H3,(H,18,19)

> <activity>
0

$$$$

  CDK     0331111707

 27 29  0  0  0  0  0  0  0  0999 V2000
   -2.1434   -2.0625    0.0000 N   0  0  0  0  0  3  0  0  0  0  0  0
   -1.4289   -1.6500    0.0000 S   0  0  0  0  0  6  0  0  0  0  0  0
   -1.0164   -2.3645    0.0000 O   0  0  0  0  0  2  0  0  0  0  0  0
   -1.8414   -0.9355    0.0000 O   0  0  0  0  0  2  0  0  0  0  0  0
   -0.7145   -1.2375    0.0000 C   0  0  0  0  0  4  0  0  0  0  0  0
    0.0000   -1.6500    0.0000 C   0  0  0  0  0  4  0  0  0  0  0  0
    0.7145   -1.2375    0.0000 C   0  0  0  0  0  4  0  0  0  0  0  0
    0.7145   -0.4125    0.0000 C   0  0  0  0  0  4  0  0  0  0  0  0
    0.0000   -0.0000    0.0000 C   0  0  0  0  0  4  0  0  0  0  0  0
   -0.7145   -0.4125    0.0000 C   0  0  0  0  0  4  0  0  0  0  0  0
   -1.4289    0.0000    0.0000 C   0  0  0  0  0  4  0  0  0  0  0  0
   -2.1434    0.4125    0.0000 F   0  0  0  0  0  1  0  0  0  0  0  0
   -2.0420   -0.5520    0.0000 F   0  0  0  0  0  1  0  0  0  0  0  0
   -1.0164    0.7145    0.0000 F   0  0  0  0  0  1  0  0  0  0  0  0
    1.4289   -0.0000    0.0000 N   0  0  0  0  0  3  0  0  0  0  0  0
    2.1434   -0.4125    0.0000 C   0  0  0  0  0  4  0  0  0  0  0  0
    2.8579   -0.0000    0.0000 C   0  0  0  0  0  4  0  0  0  0  0  0
    3.5724   -0.4125    0.0000 C   0  0  0  0  0  4  0  0  0  0  0  0
    4.2868   -0.0000    0.0000 C   0  0  0  0  0  4  0  0  0  0  0  0
    5.0013   -0.4125    0.0000 C   0  0  0  0  0  4  0  0  0  0  0  0
    5.0013   -1.2375    0.0000 C   0  0  0  0  0  4  0  0  0  0  0  0
    4.2868   -1.6500    0.0000 C   0  0  0  0  0  4  0  0  0  0  0  0
    3.5724   -1.2375    0.0000 C   0  0  0  0  0  4  0  0  0  0  0  0
    2.1434   -1.2375    0.0000 N   0  0  0  0  0  3  0  0  0  0  0  0
    1.4289   -1.6500    0.0000 S   0  0  0  0  0  6  0  0  0  0  0  0
    1.8163   -2.3784    0.0000 O   0  0  0  0  0  2  0  0  0  0  0  0
    1.0416   -2.3784    0.0000 O   0  0  0  0  0  2  0  0  0  0  0  0
  1  2  1  0  0  0  0 
  2  3  2  0  0  0  0 
  2  4  2  0  0  0  0 
  2  5  1  0  0  0  0 
  5  6  2  0  0  0  0 
  6  7  1  0  0  0  0 
  7  8  2  0  0  0  0 
  8  9  1  0  0  0  0 
  9 10  2  0  0  0  0 
  5 10  1  0  0  0  0 
 10 11  1  0  0  0  0 
 11 12  1  0  0  0  0 
 11 13  1  0  0  0  0 
 11 14  1  0  0  0  0 
  8 15  1  0  0  0  0 
 15 16  1  0  0  0  0 
 16 17  1  0  0  0  0 
 17 18  1  0  0  0  0 
 18 19  2  0  0  0  0 
 19 20  1  0  0  0  0 
 20 21  2  0  0  0  0 
 21 22  1  0  0  0  0 
 22 23  2  0  0  0  0 
 18 23  1  0  0  0  0 
 16 24  1  0  0  0  0 
 24 25  1  0  0  0  0 
  7 25  1  0  0  0  0 
 25 26  2  0  0  0  0 
 25 27  2  0  0  0  0 
M  END
> <Mol Weight>
421.415

> <Formula>
C15H14F3N3O4S2

> <CdId>
59

> <RCDK_LipinskiFailures>
0

> <source>
FDA

> <name>
Bendroflumethiazide

> <ABUNDANCE>
99.42% at pH 4.8

> <BLABBER_CHARGE>


> <inchi>
1S/C15H14F3N3O4S2/c16-15(17,18)10-7-11-13(8-12(10)26(19,22)23)27(24,25)21-14(20-11)6-9-4-2-1-3-5-9/h1-5,7-8,14,20-21H,6H2,(H2,19,22,23)

> <activity>
0

$$$$

  CDK     0331111707

 13 13  0  0  0  0  0  0  0  0999 V2000
    2.0572    1.7262    0.0000 C   0  0  0  0  0  4  0  0  0  0  0  0
    1.2448    1.8695    0.0000 C   0  0  0  0  0  4  0  0  0  0  0  0
    0.7145    1.2375    0.0000 C   0  0  0  0  0  4  0  0  0  0  0  0
    0.1842    1.8695    0.0000 C   0  0  0  0  0  4  0  0  0  0  0  0
   -0.6283    1.7262    0.0000 C   0  0  0  0  0  4  0  0  0  0  0  0
    1.4289    0.8250    0.0000 C   0  0  0  0  0  4  0  0  0  0  0  0
    2.1434    1.2375    0.0000 O   0  0  0  0  0  2  0  0  0  0  0  0
    1.4289    0.0000    0.0000 N   0  0  0  0  0  3  0  0  0  0  0  0
    0.7145   -0.4125    0.0000 C   0  0  0  0  0  4  0  0  0  0  0  0
    0.7145   -1.2375    0.0000 O   0  0  0  0  0  2  0  0  0  0  0  0
    0.0000   -0.0000    0.0000 N   0  0  0  0  0  3  0  0  0  0  0  0
   -0.0000    0.8250    0.0000 C   0  0  0  0  0  4  0  0  0  0  0  0
   -0.7145    1.2375    0.0000 O   0  0  0  0  0  2  0  0  0  0  0  0
  1  2  1  0  0  0  0 
  2  3  1  0  0  0  0 
  3  4  1  0  0  0  0 
  4  5  1  0  0  0  0 
  3  6  1  0  0  0  0 
  6  7  2  0  0  0  0 
  6  8  1  0  0  0  0 
  8  9  1  0  0  0  0 
  9 10  2  0  0  0  0 
  9 11  1  0  0  0  0 
 11 12  1  0  0  0  0 
  3 12  1  0  0  0  0 
 12 13  2  0  0  0  0 
M  END
> <Mol Weight>
184.1925

> <Formula>
C8H12N2O3

> <CdId>
58

> <RCDK_LipinskiFailures>
0

> <source>
FDA

> <name>
Barbital

> <ABUNDANCE>
99.95% at pH 4.8

> <BLABBER_CHARGE>


> <inchi>
1S/C8H12N2O3/c1-3-8(4-2)5(11)9-7(13)10-6(8)12/h3-4H2,1-2H3,(H2,9,10,11,12,13)

> <activity>
0

$$$$

  CDK     0331111707

 12 11  0  0  0  0  0  0  0  0999 V2000
    1.9520    1.9520    0.0000 N   0  0  0  0  0  4  0  0  0  0  0  0
    1.9520    1.1270    0.0000 C   0  0  0  0  0  4  0  0  0  0  0  0
    1.2375    0.7145    0.0000 C   0  0  0  0  0  4  0  0  0  0  0  0
    0.5230    1.1270    0.0000 O   0  0  0  0  0  2  0  0  0  0  0  0
   -0.1914    0.7145    0.0000 C   0  0  0  0  0  4  0  0  0  0  0  0
   -0.9059    1.1270    0.0000 C   0  0  0  0  0  4  0  0  0  0  0  0
   -1.6204    0.7145    0.0000 N   0  0  0  0  0  4  0  0  0  0  0  0
   -2.3349    0.3020    0.0000 N   0  0  0  0  0  3  0  0  0  0  0  0
   -0.1914   -0.1105    0.0000 O   0  0  0  0  0  2  0  0  0  0  0  0
    2.6664    0.7145    0.0000 C   0  0  0  0  0  4  0  0  0  0  0  0
    3.3809    1.1270    0.0000 O   0  0  0  0  0  2  0  0  0  0  0  0
    2.6664   -0.1105    0.0000 O   0  0  0  0  0  1  0  0  0  0  0  0
  1  2  1  0  0  0  0 
  2  3  1  0  0  0  0 
  3  4  1  0  0  0  0 
  4  5  1  0  0  0  0 
  5  6  2  0  0  0  0 
  6  7  1  4  0  0  0 
  7  8  3  0  0  0  0 
  5  9  1  0  0  0  0 
  2 10  1  0  0  0  0 
 10 11  2  0  0  0  0 
 10 12  1  0  0  0  0 
M  CHG  1   1   1
M  CHG  1   7   1
M  CHG  1  12  -1
M  END
> <Mol Weight>
173.1268

> <Formula>
C5H7N3O4

> <CdId>
55

> <RCDK_LipinskiFailures>
0

> <source>
BYLER

> <name>
azaserine

> <ABUNDANCE>
99.34% at pH 4.8

> <BLABBER_CHARGE>
1

> <inchi>
1S/C5H7N3O4/c6-3(5(10)11)2-12-4(9)1-8-7/h1,3H,2,6H2,(H-,9,10,11)/b4-1+

> <activity>
0

$$$$

  CDK     0331111707

 22 24  0  0  0  0  0  0  0  0999 V2000
   -1.9382   -1.0865    0.0000 C   0  0  0  0  0  4  0  0  0  0  0  0
   -1.2369   -1.5211    0.0000 C   0  0  0  0  0  4  0  0  0  0  0  0
   -0.5099   -1.1311    0.0000 C   0  0  0  0  0  4  0  0  0  0  0  0
    0.1913   -1.5657    0.0000 C   0  0  0  0  0  4  0  0  0  0  0  0
    0.9551   -1.2539    0.0000 C   0  0  0  0  0  4  0  0  0  0  0  0
    1.1517   -0.4527    0.0000 O   0  0  0  0  0  2  0  0  0  0  0  0
    1.4877   -1.8839    0.0000 N   0  0  0  0  0  3  0  0  0  0  0  0
    2.3123   -1.9097    0.0000 C   0  0  0  0  0  4  0  0  0  0  0  0
    2.7469   -1.2084    0.0000 C   0  0  0  0  0  4  0  0  0  0  0  0
    3.5715   -1.2342    0.0000 C   0  0  0  0  0  4  0  0  0  0  0  0
    4.0061   -0.5330    0.0000 C   0  0  0  0  0  4  0  0  0  0  0  0
    3.9615   -1.9612    0.0000 C   0  0  0  0  0  4  0  0  0  0  0  0
    3.5269   -2.6624    0.0000 C   0  0  0  0  0  4  0  0  0  0  0  0
    2.7023   -2.6367    0.0000 C   0  0  0  0  0  4  0  0  0  0  0  0
    2.2677   -3.3379    0.0000 N   0  0  0  0  0  3  0  0  0  0  0  0
    1.4431   -3.3122    0.0000 C   0  0  0  0  0  4  0  0  0  0  0  0
    1.0085   -4.0134    0.0000 N   0  0  0  0  0  3  0  0  0  0  0  0
    0.1839   -3.9876    0.0000 C   0  0  0  0  0  4  0  0  0  0  0  0
    1.3985   -4.7404    0.0000 C   0  0  0  0  0  4  0  0  0  0  0  0
    1.0531   -2.5852    0.0000 N   0  0  0  0  0  3  0  0  0  0  0  0
    0.2519   -2.3885    0.0000 C   0  0  0  0  0  4  0  0  0  0  0  0
   -0.3781   -2.9211    0.0000 O   0  0  0  0  0  2  0  0  0  0  0  0
  1  2  1  0  0  0  0 
  2  3  1  0  0  0  0 
  3  4  1  0  0  0  0 
  4  5  1  0  0  0  0 
  5  6  2  0  0  0  0 
  5  7  1  0  0  0  0 
  7  8  1  0  0  0  0 
  8  9  2  0  0  0  0 
  9 10  1  0  0  0  0 
 10 11  1  0  0  0  0 
 10 12  2  0  0  0  0 
 12 13  1  0  0  0  0 
 13 14  2  0  0  0  0 
  8 14  1  0  0  0  0 
 14 15  1  0  0  0  0 
 15 16  2  0  0  0  0 
 16 17  1  0  0  0  0 
 17 18  1  0  0  0  0 
 17 19  1  0  0  0  0 
 16 20  1  0  0  0  0 
  7 20  1  0  0  0  0 
 20 21  1  0  0  0  0 
  4 21  1  0  0  0  0 
 21 22  2  0  0  0  0 
M  END
> <Mol Weight>
300.3556

> <Formula>
C16H20N4O2

> <CdId>
53

> <RCDK_LipinskiFailures>
0

> <source>
FDA

> <name>
Azapropazone

> <ABUNDANCE>
98.05% at pH 4.8

> <BLABBER_CHARGE>


> <CHECK TAUTOMER>
Multiple tautomers in input structure. Results could be inaccurate.

> <inchi>
1S/C16H20N4O2/c1-5-6-11-14(21)19-13-9-10(2)7-8-12(13)17-16(18(3)4)20(19)15(11)22/h7-9,11H,5-6H2,1-4H3

> <activity>
0

$$$$

  CDK     0331111707

 28 32  0  0  0  0  0  0  0  0999 V2000
   -3.1330   -2.1804    0.0000 C   0  0  0  0  0  4  0  0  0  0  0  0
   -2.6480   -1.5129    0.0000 C   0  0  0  0  0  4  0  0  0  0  0  0
   -1.8634   -1.7679    0.0000 C   0  0  0  0  0  4  0  0  0  0  0  0
   -1.1489   -1.3554    0.0000 C   0  0  0  0  0  4  0  0  0  0  0  0
   -0.4345   -1.7679    0.0000 N   0  0  0  0  0  3  0  0  0  0  0  0
   -0.4345   -2.5929    0.0000 C   0  0  0  0  0  4  0  0  0  0  0  0
   -1.1489   -3.0054    0.0000 C   0  0  0  0  0  4  0  0  0  0  0  0
   -1.8634   -2.5929    0.0000 N   0  0  0  0  0  4  0  0  0  0  0  0
   -2.6480   -2.8478    0.0000 C   0  0  0  0  0  4  0  0  0  0  0  0
    0.2800   -1.3554    0.0000 C   0  0  0  0  0  4  0  0  0  0  0  0
    0.2800   -0.5304    0.0000 C   0  0  0  0  0  4  0  0  0  0  0  0
    0.9945   -0.1179    0.0000 C   0  0  0  0  0  4  0  0  0  0  0  0
    1.7089   -0.5304    0.0000 O   0  0  0  0  0  2  0  0  0  0  0  0
    0.9945    0.7071    0.0000 N   0  0  0  0  0  3  0  0  0  0  0  0
    1.7089    1.1196    0.0000 C   0  0  0  0  0  4  0  0  0  0  0  0
    2.4234    0.7071    0.0000 C   0  0  0  0  0  4  0  0  0  0  0  0
    3.1379    1.1196    0.0000 C   0  0  0  0  0  4  0  0  0  0  0  0
    3.1379    1.9446    0.0000 C   0  0  0  0  0  4  0  0  0  0  0  0
    2.4234    2.3571    0.0000 C   0  0  0  0  0  4  0  0  0  0  0  0
    1.7089    1.9446    0.0000 C   0  0  0  0  0  4  0  0  0  0  0  0
    0.9945    2.3571    0.0000 S   0  0  0  0  0  2  0  0  0  0  0  0
    0.2800    1.9446    0.0000 C   0  0  0  0  0  4  0  0  0  0  0  0
    0.2800    1.1196    0.0000 C   0  0  0  0  0  4  0  0  0  0  0  0
   -0.4345    0.7071    0.0000 C   0  0  0  0  0  4  0  0  0  0  0  0
   -1.1489    1.1196    0.0000 C   0  0  0  0  0  4  0  0  0  0  0  0
   -1.1489    1.9446    0.0000 C   0  0  0  0  0  4  0  0  0  0  0  0
   -0.4345    2.3571    0.0000 C   0  0  0  0  0  4  0  0  0  0  0  0
   -1.8634    0.7071    0.0000 Cl  0  0  0  0  0  1  0  0  0  0  0  0
  1  2  1  0  0  0  0 
  2  3  1  0  0  0  0 
  3  4  1  0  0  0  0 
  4  5  1  0  0  0  0 
  5  6  1  0  0  0  0 
  6  7  1  0  0  0  0 
  7  8  1  0  0  0  0 
  3  8  1  0  0  0  0 
  8  9  1  0  0  0  0 
  1  9  1  0  0  0  0 
  5 10  1  0  0  0  0 
 10 11  1  0  0  0  0 
 11 12  1  0  0  0  0 
 12 13  2  0  0  0  0 
 12 14  1  0  0  0  0 
 14 15  1  0  0  0  0 
 15 16  2  0  0  0  0 
 16 17  1  0  0  0  0 
 17 18  2  0  0  0  0 
 18 19  1  0  0  0  0 
 19 20  2  0  0  0  0 
 15 20  1  0  0  0  0 
 20 21  1  0  0  0  0 
 21 22  1  0  0  0  0 
 22 23  2  0  0  0  0 
 14 23  1  0  0  0  0 
 23 24  1  0  0  0  0 
 24 25  2  0  0  0  0 
 25 26  1  0  0  0  0 
 26 27  2  0  0  0  0 
 22 27  1  0  0  0  0 
 25 28  1  0  0  0  0 
M  CHG  1   8   1
M  END
> <Mol Weight>
413.963

> <Formula>
C22H24ClN3OS

> <CdId>
51

> <RCDK_LipinskiFailures>
0

> <source>
LOWE

> <name>
AY-25329

> <ABUNDANCE>
98.78% at pH 4.8

> <BLABBER_CHARGE>
1

> <inchi>
1S/C22H24ClN3OS.2ClH/c23-16-7-8-21-19(14-16)26(18-5-1-2-6-20(18)28-21)22(27)9-11-24-12-13-25-10-3-4-17(25)15-24;;/h1-2,5-8,14,17H,3-4,9-13,15H2;2*1H

> <activity>
0

$$$$

  CDK     0331111707

 28 31  0  0  0  0  0  0  0  0999 V2000
    3.9713   -0.8183    0.0000 C   0  0  0  0  0  4  0  0  0  0  0  0
    3.2569   -0.4058    0.0000 O   0  0  0  0  0  2  0  0  0  0  0  0
    2.5424   -0.8183    0.0000 C   0  0  0  0  0  4  0  0  0  0  0  0
    2.5424   -1.6433    0.0000 C   0  0  0  0  0  4  0  0  0  0  0  0
    1.8279   -2.0558    0.0000 C   0  0  0  0  0  4  0  0  0  0  0  0
    1.1135   -1.6433    0.0000 C   0  0  0  0  0  4  0  0  0  0  0  0
    1.1135   -0.8183    0.0000 C   0  0  0  0  0  4  0  0  0  0  0  0
    1.8279   -0.4058    0.0000 C   0  0  0  0  0  4  0  0  0  0  0  0
    0.3288   -0.5634    0.0000 C   0  0  0  0  0  4  0  0  0  0  0  0
   -0.1561   -1.2308    0.0000 C   0  0  0  0  0  4  0  0  0  0  0  0
    0.3288   -1.8983    0.0000 C   0  0  0  0  0  4  0  0  0  0  0  0
    0.0739   -2.6829    0.0000 O   0  0  0  0  0  2  0  0  0  0  0  0
   -0.9811   -1.2308    0.0000 C   0  0  0  0  0  4  0  0  0  0  0  0
   -1.3936   -0.5163    0.0000 C   0  0  0  0  0  4  0  0  0  0  0  0
   -2.2186   -0.5163    0.0000 C   0  0  0  0  0  4  0  0  0  0  0  0
   -2.6311    0.1981    0.0000 C   0  0  0  0  0  4  0  0  0  0  0  0
   -2.2186    0.9126    0.0000 N   0  0  0  0  0  4  0  0  0  0  0  0
   -1.3936    0.9126    0.0000 C   0  0  0  0  0  4  0  0  0  0  0  0
   -0.9811    0.1981    0.0000 C   0  0  0  0  0  4  0  0  0  0  0  0
   -2.6311    1.6271    0.0000 C   0  0  0  0  0  4  0  0  0  0  0  0
   -2.2186    2.3415    0.0000 C   0  0  0  0  0  4  0  0  0  0  0  0
   -2.6311    3.0560    0.0000 C   0  0  0  0  0  4  0  0  0  0  0  0
   -2.2186    3.7705    0.0000 C   0  0  0  0  0  4  0  0  0  0  0  0
   -1.3936    3.7705    0.0000 C   0  0  0  0  0  4  0  0  0  0  0  0
   -0.9811    3.0560    0.0000 C   0  0  0  0  0  4  0  0  0  0  0  0
   -1.3936    2.3415    0.0000 C   0  0  0  0  0  4  0  0  0  0  0  0
    3.2569   -2.0558    0.0000 O   0  0  0  0  0  2  0  0  0  0  0  0
    3.2569   -2.8808    0.0000 C   0  0  0  0  0  4  0  0  0  0  0  0
  1  2  1  0  0  0  0 
  2  3  1  0  0  0  0 
  3  4  2  0  0  0  0 
  4  5  1  0  0  0  0 
  5  6  2  0  0  0  0 
  6  7  1  0  0  0  0 
  7  8  2  0  0  0  0 
  3  8  1  0  0  0  0 
  7  9  1  0  0  0  0 
  9 10  1  0  0  0  0 
 10 11  1  0  0  0  0 
  6 11  1  0  0  0  0 
 11 12  2  0  0  0  0 
 10 13  1  0  0  0  0 
 13 14  1  0  0  0  0 
 14 15  1  0  0  0  0 
 15 16  1  0  0  0  0 
 16 17  1  0  0  0  0 
 17 18  1  0  0  0  0 
 18 19  1  0  0  0  0 
 14 19  1  0  0  0  0 
 17 20  1  0  0  0  0 
 20 21  1  0  0  0  0 
 21 22  2  0  0  0  0 
 22 23  1  0  0  0  0 
 23 24  2  0  0  0  0 
 24 25  1  0  0  0  0 
 25 26  2  0  0  0  0 
 21 26  1  0  0  0  0 
  4 27  1  0  0  0  0 
 27 28  1  0  0  0  0 
M  CHG  1  17   1
M  END
> <Mol Weight>
379.492

> <Formula>
C24H29NO3

> <CdId>
48

> <RCDK_LipinskiFailures>
0

> <source>
LOWE

> <name>
Aricept

> <ABUNDANCE>
99.96% at pH 4.8

> <BLABBER_CHARGE>
1

> <inchi>
1S/C24H29NO3.ClH/c1-27-22-14-19-13-20(24(26)21(19)15-23(22)28-2)12-17-8-10-25(11-9-17)16-18-6-4-3-5-7-18;/h3-7,14-15,17,20H,8-13,16H2,1-2H3;1H

> <activity>
0

$$$$

  CDK     0331111707

 28 31  0  0  0  0  0  0  0  0999 V2000
    3.4990    1.1104    0.0000 C   0  0  0  0  0  4  0  0  0  0  0  0
    2.7845    0.6979    0.0000 O   0  0  0  0  0  2  0  0  0  0  0  0
    2.0701    1.1104    0.0000 C   0  0  0  0  0  4  0  0  0  0  0  0
    1.3556    0.6979    0.0000 C   0  0  0  0  0  4  0  0  0  0  0  0
    0.6411    1.1104    0.0000 C   0  0  0  0  0  4  0  0  0  0  0  0
   -0.1435    0.8555    0.0000 C   0  0  0  0  0  4  0  0  0  0  0  0
   -0.6284    1.5229    0.0000 C   0  0  0  0  0  4  0  0  0  0  0  0
   -1.4534    1.5229    0.0000 C   0  0  0  0  0  4  0  0  0  0  0  0
   -1.8659    2.2374    0.0000 C   0  0  0  0  0  4  0  0  0  0  0  0
   -2.6909    2.2374    0.0000 C   0  0  0  0  0  4  0  0  0  0  0  0
   -3.1034    2.9519    0.0000 C   0  0  0  0  0  4  0  0  0  0  0  0
   -2.6909    3.6664    0.0000 N   0  0  0  0  0  4  0  0  0  0  0  0
   -3.1034    4.3808    0.0000 C   0  0  0  0  0  4  0  0  0  0  0  0
   -2.6909    5.0953    0.0000 C   0  0  0  0  0  4  0  0  0  0  0  0
   -3.1034    5.8098    0.0000 C   0  0  0  0  0  4  0  0  0  0  0  0
   -2.6909    6.5242    0.0000 C   0  0  0  0  0  4  0  0  0  0  0  0
   -1.8659    6.5242    0.0000 C   0  0  0  0  0  4  0  0  0  0  0  0
   -1.4534    5.8098    0.0000 C   0  0  0  0  0  4  0  0  0  0  0  0
   -1.8659    5.0953    0.0000 C   0  0  0  0  0  4  0  0  0  0  0  0
   -1.8659    3.6664    0.0000 C   0  0  0  0  0  4  0  0  0  0  0  0
   -1.4534    2.9519    0.0000 C   0  0  0  0  0  4  0  0  0  0  0  0
   -0.1435    2.1904    0.0000 C   0  0  0  0  0  4  0  0  0  0  0  0
   -0.3984    2.9750    0.0000 O   0  0  0  0  0  2  0  0  0  0  0  0
    0.6411    1.9354    0.0000 C   0  0  0  0  0  4  0  0  0  0  0  0
    1.3556    2.3479    0.0000 C   0  0  0  0  0  4  0  0  0  0  0  0
    2.0701    1.9354    0.0000 C   0  0  0  0  0  4  0  0  0  0  0  0
    2.7845    2.3479    0.0000 O   0  0  0  0  0  2  0  0  0  0  0  0
    3.4990    1.9354    0.0000 C   0  0  0  0  0  4  0  0  0  0  0  0
  1  2  1  0  0  0  0 
  2  3  1  0  0  0  0 
  3  4  2  0  0  0  0 
  4  5  1  0  0  0  0 
  5  6  1  0  0  0  0 
  6  7  1  0  0  0  0 
  7  8  1  0  0  0  0 
  8  9  1  0  0  0  0 
  9 10  1  0  0  0  0 
 10 11  1  0  0  0  0 
 11 12  1  0  0  0  0 
 12 13  1  0  0  0  0 
 13 14  1  0  0  0  0 
 14 15  2  0  0  0  0 
 15 16  1  0  0  0  0 
 16 17  2  0  0  0  0 
 17 18  1  0  0  0  0 
 18 19  2  0  0  0  0 
 14 19  1  0  0  0  0 
 12 20  1  0  0  0  0 
 20 21  1  0  0  0  0 
  9 21  1  0  0  0  0 
  7 22  1  0  0  0  0 
 22 23  2  0  0  0  0 
 22 24  1  0  0  0  0 
  5 24  2  0  0  0  0 
 24 25  1  0  0  0  0 
 25 26  2  0  0  0  0 
  3 26  1  0  0  0  0 
 26 27  1  0  0  0  0 
 27 28  1  0  0  0  0 
M  CHG  1  12   1
M  END
> <Mol Weight>
379.492

> <Formula>
C24H29NO3

> <CdId>
47

> <RCDK_LipinskiFailures>
0

> <source>
BYLER

> <name>
aricept

> <ABUNDANCE>
99.96% at pH 4.8

> <BLABBER_CHARGE>
1

> <inchi>
1S/C24H29NO3/c1-27-22-14-19-13-20(24(26)21(19)15-23(22)28-2)12-17-8-10-25(11-9-17)16-18-6-4-3-5-7-18/h3-7,14-15,17,20H,8-13,16H2,1-2H3

> <activity>
0

$$$$

  CDK     0331111707

 20 22  0  0  0  0  0  0  0  0999 V2000
   -4.1801    3.1152    0.0000 C   0  0  0  0  0  4  0  0  0  0  0  0
   -3.4656    3.5277    0.0000 C   0  0  0  0  0  4  0  0  0  0  0  0
   -2.7512    3.1152    0.0000 C   0  0  0  0  0  4  0  0  0  0  0  0
   -2.7512    2.2902    0.0000 C   0  0  0  0  0  4  0  0  0  0  0  0
   -3.4656    1.8777    0.0000 C   0  0  0  0  0  4  0  0  0  0  0  0
   -4.1801    2.2902    0.0000 C   0  0  0  0  0  4  0  0  0  0  0  0
   -2.0367    1.8777    0.0000 C   0  0  0  0  0  4  0  0  0  0  0  0
   -2.0367    1.0527    0.0000 N   0  0  0  0  0  3  0  0  0  0  0  0
   -1.3222    0.6402    0.0000 C   0  0  0  0  0  4  0  0  0  0  0  0
   -1.3222   -0.1848    0.0000 C   0  0  0  0  0  4  0  0  0  0  0  0
   -0.6548   -0.6697    0.0000 N   0  0  0  0  0  4  0  0  0  0  0  0
   -0.9097   -1.4544    0.0000 C   0  0  0  0  0  4  0  0  0  0  0  0
   -1.7347   -1.4544    0.0000 C   0  0  0  0  0  4  0  0  0  0  0  0
   -1.9897   -0.6697    0.0000 N   0  0  0  0  0  3  0  0  0  0  0  0
   -2.7512    0.6402    0.0000 C   0  0  0  0  0  4  0  0  0  0  0  0
   -2.7512   -0.1848    0.0000 C   0  0  0  0  0  4  0  0  0  0  0  0
   -3.4656   -0.5973    0.0000 C   0  0  0  0  0  4  0  0  0  0  0  0
   -4.1801   -0.1848    0.0000 C   0  0  0  0  0  4  0  0  0  0  0  0
   -4.1801    0.6402    0.0000 C   0  0  0  0  0  4  0  0  0  0  0  0
   -3.4656    1.0527    0.0000 C   0  0  0  0  0  4  0  0  0  0  0  0
  1  2  2  0  0  0  0 
  2  3  1  0  0  0  0 
  3  4  2  0  0  0  0 
  4  5  1  0  0  0  0 
  5  6  2  0  0  0  0 
  1  6  1  0  0  0  0 
  4  7  1  0  0  0  0 
  7  8  1  0  0  0  0 
  8  9  1  0  0  0  0 
  9 10  1  0  0  0  0 
 10 11  2  0  0  0  0 
 11 12  1  0  0  0  0 
 12 13  1  0  0  0  0 
 13 14  1  0  0  0  0 
 10 14  1  0  0  0  0 
  8 15  1  0  0  0  0 
 15 16  2  0  0  0  0 
 16 17  1  0  0  0  0 
 17 18  2  0  0  0  0 
 18 19  1  0  0  0  0 
 19 20  2  0  0  0  0 
 15 20  1  0  0  0  0 
M  CHG  1  11   1
M  END
> <Mol Weight>
265.3529

> <Formula>
C17H19N3

> <CdId>
44

> <RCDK_LipinskiFailures>
0

> <source>
FDA

> <name>
Antazoline

> <ABUNDANCE>
99.6% at pH 4.8

> <BLABBER_CHARGE>
1

> <inchi>
1S/C17H19N3/c1-3-7-15(8-4-1)13-20(14-17-18-11-12-19-17)16-9-5-2-6-10-16/h1-10H,11-14H2,(H,18,19)

> <activity>
0

$$$$

  CDK     0331111707

 13 14  0  0  0  0  0  0  0  0999 V2000
   -0.7145   -0.4125    0.0000 C   0  0  0  0  0  4  0  0  0  0  0  0
   -0.7145   -1.2375    0.0000 C   0  0  0  0  0  4  0  0  0  0  0  0
    0.0000   -1.6500    0.0000 C   0  0  0  0  0  4  0  0  0  0  0  0
    0.7145   -1.2375    0.0000 C   0  0  0  0  0  4  0  0  0  0  0  0
    0.7145   -0.4125    0.0000 C   0  0  0  0  0  4  0  0  0  0  0  0
    0.0000   -0.0000    0.0000 C   0  0  0  0  0  4  0  0  0  0  0  0
    1.4289   -0.0000    0.0000 C   0  0  0  0  0  4  0  0  0  0  0  0
    2.1434   -0.4125    0.0000 C   0  0  0  0  0  4  0  0  0  0  0  0
    2.1434   -1.2375    0.0000 C   0  0  0  0  0  4  0  0  0  0  0  0
    1.4289   -1.6500    0.0000 C   0  0  0  0  0  4  0  0  0  0  0  0
    1.4289   -2.4750    0.0000 N   0  0  0  0  0  3  0  0  0  0  0  0
    2.1434   -2.8875    0.0000 C   0  0  0  0  0  4  0  0  0  0  0  0
    2.8579   -3.3000    0.0000 S   0  0  0  0  0  2  0  0  0  0  0  0
  1  2  2  0  0  0  0 
  2  3  1  0  0  0  0 
  3  4  2  0  0  0  0 
  4  5  1  0  0  0  0 
  5  6  2  0  0  0  0 
  1  6  1  0  0  0  0 
  5  7  1  0  0  0  0 
  7  8  2  0  0  0  0 
  8  9  1  0  0  0  0 
  9 10  2  0  0  0  0 
  4 10  1  0  0  0  0 
 10 11  1  0  0  0  0 
 11 12  2  0  0  0  0 
 12 13  2  0  0  0  0 
M  END
> <Mol Weight>
185.245

> <Formula>
C11H7NS

> <CdId>
43

> <RCDK_LipinskiFailures>
0

> <source>
LOWE

> <name>
ANIT_(1-Naphthylisothiocyanate)

> <ABUNDANCE>
99.86% at pH 4.8

> <BLABBER_CHARGE>


> <inchi>
1S/C11H7NS/c13-8-12-11-7-3-5-9-4-1-2-6-10(9)11/h1-7H

> <activity>
0

$$$$

  CDK     0331111707

 20 21  0  0  0  0  0  0  0  0999 V2000
    5.8379   -3.5062    0.0000 C   0  0  0  0  0  4  0  0  0  0  0  0
    5.0129   -3.5054    0.0000 C   0  0  0  0  0  4  0  0  0  0  0  0
    4.6011   -2.7905    0.0000 C   0  0  0  0  0  4  0  0  0  0  0  0
    3.7761   -2.7897    0.0000 C   0  0  0  0  0  4  0  0  0  0  0  0
    3.3629   -3.5037    0.0000 C   0  0  0  0  0  4  0  0  0  0  0  0
    3.7747   -4.2186    0.0000 C   0  0  0  0  0  4  0  0  0  0  0  0
    3.3615   -4.9327    0.0000 C   0  0  0  0  0  4  0  0  0  0  0  0
    3.3643   -2.0748    0.0000 C   0  0  0  0  0  4  0  0  0  0  0  0
    3.7775   -1.3607    0.0000 O   0  0  0  0  0  2  0  0  0  0  0  0
    2.5393   -2.0740    0.0000 O   0  0  0  0  0  2  0  0  0  0  0  0
    2.1275   -1.3591    0.0000 C   0  0  0  0  0  4  0  0  0  0  0  0
    1.6113   -0.9304    0.0000 C   0  0  0  0  0  4  0  0  0  0  0  0
    0.6396   -0.9304    0.0000 C   0  0  0  0  0  4  0  0  0  0  0  0
    0.1197   -1.6427    0.0000 C   0  0  0  0  0  4  0  0  0  0  0  0
    0.7400   -1.2658    0.0000 C   0  0  0  0  0  4  0  0  0  0  0  0
    1.0605   -0.5572    0.0000 C   0  0  0  0  0  4  0  0  0  0  0  0
    1.9893   -0.5417    0.0000 C   0  0  0  0  0  4  0  0  0  0  0  0
    0.4999   -0.1173    0.0000 N   0  0  0  0  0  4  0  0  0  0  0  0
    0.5900    0.7028    0.0000 C   0  0  0  0  0  4  0  0  0  0  0  0
   -0.2645    0.1931    0.0000 C   0  0  0  0  0  4  0  0  0  0  0  0
  1  2  1  0  0  0  0 
  2  3  1  0  0  0  0 
  3  4  1  0  0  0  0 
  4  5  1  0  0  0  0 
  5  6  1  0  0  0  0 
  6  7  1  0  0  0  0 
  4  8  1  0  0  0  0 
  8  9  2  0  0  0  0 
  8 10  1  0  0  0  0 
 10 11  1  0  0  0  0 
 11 12  1  0  0  0  0 
 12 13  1  0  0  0  0 
 13 14  1  0  0  0  0 
 14 15  1  0  0  0  0 
 15 16  1  0  0  0  0 
 16 17  1  0  0  0  0 
 11 17  1  0  0  0  0 
 16 18  1  0  0  0  0 
 13 18  1  0  0  0  0 
 18 19  1  0  0  0  0 
 18 20  1  0  0  0  0 
M  CHG  1  18   1
M  END
> <Mol Weight>
282.4415

> <Formula>
C17H32NO2

> <CdId>
42

> <RCDK_LipinskiFailures>
0

> <source>
FDA

> <name>
Anisotropine methylbromide

> <ABUNDANCE>
No species found

> <BLABBER_CHARGE>
1

> <inchi>
1S/C17H32NO2/c1-5-7-13(8-6-2)17(19)20-16-11-14-9-10-15(12-16)18(14,3)4/h13-16H,5-12H2,1-4H3/q+1

> <activity>
0

$$$$

  CDK     0331111707

 26 28  0  0  0  0  0  0  0  0999 V2000
    0.7485    1.7700    0.0000 C   0  0  0  0  0  4  0  0  0  0  0  0
    0.4663    0.9947    0.0000 C   0  0  0  0  0  4  0  0  0  0  0  0
    0.9966    0.3627    0.0000 O   0  0  0  0  0  2  0  0  0  0  0  0
    0.7145   -0.4125    0.0000 C   0  0  0  0  0  4  0  0  0  0  0  0
   -0.0980   -0.5558    0.0000 O   0  0  0  0  0  2  0  0  0  0  0  0
    1.2448   -1.0445    0.0000 C   0  0  0  0  0  4  0  0  0  0  0  0
    1.9592   -1.4570    0.0000 C   0  0  0  0  0  4  0  0  0  0  0  0
    1.9592   -2.2820    0.0000 C   0  0  0  0  0  4  0  0  0  0  0  0
    1.2448   -2.6945    0.0000 N   0  0  0  0  0  4  0  0  0  0  0  0
    1.2448   -3.5195    0.0000 C   0  0  0  0  0  4  0  0  0  0  0  0
    1.9592   -3.9320    0.0000 C   0  0  0  0  0  4  0  0  0  0  0  0
    1.9592   -4.7570    0.0000 C   0  0  0  0  0  4  0  0  0  0  0  0
    2.6737   -5.1695    0.0000 C   0  0  0  0  0  4  0  0  0  0  0  0
    2.6737   -5.9945    0.0000 C   0  0  0  0  0  4  0  0  0  0  0  0
    1.9592   -6.4070    0.0000 C   0  0  0  0  0  4  0  0  0  0  0  0
    1.9592   -7.2320    0.0000 N   0  0  0  0  0  3  0  0  0  0  0  0
    1.2448   -5.9945    0.0000 C   0  0  0  0  0  4  0  0  0  0  0  0
    1.2448   -5.1695    0.0000 C   0  0  0  0  0  4  0  0  0  0  0  0
    0.5303   -2.2820    0.0000 C   0  0  0  0  0  4  0  0  0  0  0  0
    0.5303   -1.4570    0.0000 C   0  0  0  0  0  4  0  0  0  0  0  0
    1.7751   -0.4125    0.0000 C   0  0  0  0  0  4  0  0  0  0  0  0
    1.4929    0.3627    0.0000 C   0  0  0  0  0  4  0  0  0  0  0  0
    2.0232    0.9947    0.0000 C   0  0  0  0  0  4  0  0  0  0  0  0
    2.8357    0.8515    0.0000 C   0  0  0  0  0  4  0  0  0  0  0  0
    3.1178    0.0762    0.0000 C   0  0  0  0  0  4  0  0  0  0  0  0
    2.5875   -0.5558    0.0000 C   0  0  0  0  0  4  0  0  0  0  0  0
  1  2  1  0  0  0  0 
  2  3  1  0  0  0  0 
  3  4  1  0  0  0  0 
  4  5  2  0  0  0  0 
  4  6  1  0  0  0  0 
  6  7  1  0  0  0  0 
  7  8  1  0  0  0  0 
  8  9  1  0  0  0  0 
  9 10  1  0  0  0  0 
 10 11  1  0  0  0  0 
 11 12  1  0  0  0  0 
 12 13  2  0  0  0  0 
 13 14  1  0  0  0  0 
 14 15  2  0  0  0  0 
 15 16  1  0  0  0  0 
 15 17  1  0  0  0  0 
 17 18  2  0  0  0  0 
 12 18  1  0  0  0  0 
  9 19  1  0  0  0  0 
 19 20  1  0  0  0  0 
  6 20  1  0  0  0  0 
  6 21  1  0  0  0  0 
 21 22  2  0  0  0  0 
 22 23  1  0  0  0  0 
 23 24  2  0  0  0  0 
 24 25  1  0  0  0  0 
 25 26  2  0  0  0  0 
 21 26  1  0  0  0  0 
M  CHG  1   9   1
M  END
> <Mol Weight>
352.4699

> <Formula>
C22H28N2O2

> <CdId>
41

> <RCDK_LipinskiFailures>
0

> <source>
FDA

> <name>
Anileridine

> <ABUNDANCE>
92.64% at pH 4.8

> <BLABBER_CHARGE>
1

> <inchi>
1S/C22H28N2O2/c1-2-26-21(25)22(19-6-4-3-5-7-19)13-16-24(17-14-22)15-12-18-8-10-20(23)11-9-18/h3-11H,2,12-17,23H2,1H3

> <activity>
0

$$$$

  CDK     0331111707

 21 24  0  0  0  0  0  0  0  0999 V2000
    3.5330   -3.2587    0.0000 C   0  0  0  0  0  4  0  0  0  0  0  0
    3.8928   -2.5163    0.0000 C   0  0  0  0  0  4  0  0  0  0  0  0
    4.4247   -3.1470    0.0000 C   0  0  0  0  0  4  0  0  0  0  0  0
    5.2368   -3.0018    0.0000 C   0  0  0  0  0  4  0  0  0  0  0  0
    5.5171   -2.2259    0.0000 C   0  0  0  0  0  4  0  0  0  0  0  0
    4.9853   -1.5952    0.0000 C   0  0  0  0  0  4  0  0  0  0  0  0
    5.2655   -0.8192    0.0000 C   0  0  0  0  0  4  0  0  0  0  0  0
    6.0777   -0.6740    0.0000 C   0  0  0  0  0  4  0  0  0  0  0  0
    6.6095   -1.3047    0.0000 C   0  0  0  0  0  4  0  0  0  0  0  0
    7.4216   -1.1595    0.0000 C   0  0  0  0  0  4  0  0  0  0  0  0
    7.9534   -1.7902    0.0000 C   0  0  0  0  0  4  0  0  0  0  0  0
    8.7655   -1.6450    0.0000 O   0  0  0  0  0  2  0  0  0  0  0  0
    7.6731   -2.5662    0.0000 C   0  0  0  0  0  4  0  0  0  0  0  0
    6.8610   -2.7114    0.0000 C   0  0  0  0  0  4  0  0  0  0  0  0
    6.3292   -2.0807    0.0000 C   0  0  0  0  0  4  0  0  0  0  0  0
    6.0489   -2.8566    0.0000 C   0  0  0  0  0  4  0  0  0  0  0  0
    4.1731   -1.7404    0.0000 C   0  0  0  0  0  4  0  0  0  0  0  0
    3.5218   -1.2340    0.0000 C   0  0  0  0  0  4  0  0  0  0  0  0
    2.8390   -1.6970    0.0000 C   0  0  0  0  0  4  0  0  0  0  0  0
    3.0683   -2.4895    0.0000 C   0  0  0  0  0  4  0  0  0  0  0  0
    2.5619   -3.1408    0.0000 O   0  0  0  0  0  2  0  0  0  0  0  0
  1  2  1  0  0  0  0 
  2  3  1  0  0  0  0 
  3  4  1  0  0  0  0 
  4  5  1  0  0  0  0 
  5  6  1  0  0  0  0 
  6  7  1  0  0  0  0 
  7  8  1  0  0  0  0 
  8  9  2  0  0  0  0 
  9 10  1  0  0  0  0 
 10 11  1  0  0  0  0 
 11 12  1  0  0  0  0 
 11 13  1  0  0  0  0 
 13 14  1  0  0  0  0 
 14 15  1  0  0  0  0 
  9 15  1  0  0  0  0 
  5 15  1  0  0  0  0 
 15 16  1  0  0  0  0 
  6 17  1  0  0  0  0 
  2 17  1  0  0  0  0 
 17 18  1  0  0  0  0 
 18 19  1  0  0  0  0 
 19 20  1  0  0  0  0 
  2 20  1  0  0  0  0 
 20 21  1  0  0  0  0 
M  END
> <Mol Weight>
290.4403

> <Formula>
C19H30O2

> <CdId>
40

> <RCDK_LipinskiFailures>
0

> <source>
FDA

> <name>
Androstenediol

> <ABUNDANCE>
100% at pH 4.8

> <BLABBER_CHARGE>


> <inchi>
1S/C19H30O2/c1-18-9-7-13(20)11-12(18)3-4-14-15-5-6-17(21)19(15,2)10-8-16(14)18/h3,13-17,20-21H,4-11H2,1-2H3

> <activity>
0

$$$$

  CDK     0331111707

 16 18  0  0  0  0  0  0  0  0999 V2000
    5.1436    3.0270    0.0000 N   0  0  0  0  0  4  0  0  0  0  0  0
    4.3402    2.8396    0.0000 C   0  0  0  0  0  4  0  0  0  0  0  0
    4.1008    2.0501    0.0000 C   0  0  0  0  0  4  0  0  0  0  0  0
    3.2973    1.8627    0.0000 C   0  0  0  0  0  4  0  0  0  0  0  0
    2.7333    2.4648    0.0000 N   0  0  0  0  0  3  0  0  0  0  0  0
    2.9727    3.2543    0.0000 C   0  0  0  0  0  4  0  0  0  0  0  0
    3.7762    3.4417    0.0000 N   0  0  0  0  0  3  0  0  0  0  0  0
    2.2959    3.7260    0.0000 O   0  0  0  0  0  2  0  0  0  0  0  0
    1.6381    3.2280    0.0000 C   0  0  0  0  0  4  0  0  0  0  0  0
    0.8133    3.2118    0.0000 O   0  0  0  0  0  2  0  0  0  0  0  0
    0.5739    2.4223    0.0000 C   0  0  0  0  0  4  0  0  0  0  0  0
   -0.2056    2.1519    0.0000 C   0  0  0  0  0  4  0  0  0  0  0  0
   -0.3612    1.3417    0.0000 O   0  0  0  0  0  2  0  0  0  0  0  0
    1.2507    1.9506    0.0000 C   0  0  0  0  0  4  0  0  0  0  0  0
    1.2670    1.1257    0.0000 O   0  0  0  0  0  2  0  0  0  0  0  0
    1.9085    2.4486    0.0000 C   0  0  0  0  0  4  0  0  0  0  0  0
  1  2  2  0  0  0  0 
  2  3  1  0  0  0  0 
  3  4  2  0  0  0  0 
  4  5  1  0  0  0  0 
  5  6  1  0  0  0  0 
  6  7  2  0  0  0  0 
  2  7  1  0  0  0  0 
  6  8  1  0  0  0  0 
  8  9  1  0  0  0  0 
  9 10  1  0  0  0  0 
 10 11  1  0  0  0  0 
 11 12  1  0  0  0  0 
 12 13  1  0  0  0  0 
 11 14  1  0  0  0  0 
 14 15  1  0  0  0  0 
 14 16  1  0  0  0  0 
  9 16  1  0  0  0  0 
  5 16  1  0  0  0  0 
M  CHG  1   1   1
M  END
> <Mol Weight>
225.2013

> <Formula>
C9H11N3O4

> <CdId>
39

> <RCDK_LipinskiFailures>
0

> <source>
FDA

> <name>
Ancitabine

> <ABUNDANCE>
97.51% at pH 4.8

> <BLABBER_CHARGE>
1

> <inchi>
1S/C9H11N3O4/c10-5-1-2-12-6-7(14)4(3-13)15-8(6)16-9(12)11-5/h1-2,4,6-8,10,13-14H,3H2

> <activity>
0

$$$$

  CDK     0331111707

 14 15  0  0  0  0  0  0  0  0999 V2000
    0.7145   -0.4125    0.0000 N   0  0  0  0  0  3  0  0  0  0  0  0
    0.7145   -1.2375    0.0000 C   0  0  0  0  0  4  0  0  0  0  0  0
    1.4289   -1.6500    0.0000 C   0  0  0  0  0  4  0  0  0  0  0  0
    1.4289   -2.4750    0.0000 C   0  0  0  0  0  4  0  0  0  0  0  0
    0.7145   -2.8875    0.0000 C   0  0  0  0  0  4  0  0  0  0  0  0
    0.0000   -2.4750    0.0000 N   0  0  0  0  0  3  0  0  0  0  0  0
    0.0000   -1.6500    0.0000 C   0  0  0  0  0  4  0  0  0  0  0  0
   -0.7145   -1.2375    0.0000 O   0  0  0  0  0  2  0  0  0  0  0  0
    2.1434   -2.8875    0.0000 C   0  0  0  0  0  4  0  0  0  0  0  0
    2.8579   -2.4750    0.0000 C   0  0  0  0  0  4  0  0  0  0  0  0
    3.5724   -2.8875    0.0000 C   0  0  0  0  0  4  0  0  0  0  0  0
    3.5724   -3.7125    0.0000 N   0  0  0  0  0  3  0  0  0  0  0  0
    2.8579   -4.1250    0.0000 C   0  0  0  0  0  4  0  0  0  0  0  0
    2.1434   -3.7125    0.0000 C   0  0  0  0  0  4  0  0  0  0  0  0
  1  2  1  0  0  0  0 
  2  3  2  0  0  0  0 
  3  4  1  0  0  0  0 
  4  5  2  0  0  0  0 
  5  6  1  0  0  0  0 
  6  7  1  0  0  0  0 
  2  7  1  0  0  0  0 
  7  8  2  0  0  0  0 
  4  9  1  0  0  0  0 
  9 10  2  0  0  0  0 
 10 11  1  0  0  0  0 
 11 12  2  0  0  0  0 
 12 13  1  0  0  0  0 
 13 14  2  0  0  0  0 
  9 14  1  0  0  0  0 
M  END
> <Mol Weight>
187.198

> <Formula>
C10H9N3O

> <CdId>
38

> <RCDK_LipinskiFailures>
0

> <source>
FDA

> <name>
Amrinone

> <ABUNDANCE>
65.49% at pH 4.8

> <BLABBER_CHARGE>


> <inchi>
1S/C10H9N3O/c11-9-5-8(6-13-10(9)14)7-1-3-12-4-2-7/h1-6H,11H2,(H,13,14)

> <activity>
0

$$$$

  CDK     0331111707

 10 10  0  0  0  0  0  0  0  0999 V2000
   -0.0000    3.3000    0.0000 C   0  0  0  0  0  4  0  0  0  0  0  0
   -0.0000    2.4750    0.0000 C   0  0  0  0  0  4  0  0  0  0  0  0
   -0.7145    2.0625    0.0000 N   0  0  0  0  0  4  0  0  0  0  0  0
    0.7145    2.0625    0.0000 C   0  0  0  0  0  4  0  0  0  0  0  0
    0.7145    1.2375    0.0000 C   0  0  0  0  0  4  0  0  0  0  0  0
    1.4289    0.8250    0.0000 C   0  0  0  0  0  4  0  0  0  0  0  0
    1.4289    0.0000    0.0000 C   0  0  0  0  0  4  0  0  0  0  0  0
    0.7145   -0.4125    0.0000 C   0  0  0  0  0  4  0  0  0  0  0  0
    0.0000   -0.0000    0.0000 C   0  0  0  0  0  4  0  0  0  0  0  0
   -0.0000    0.8250    0.0000 C   0  0  0  0  0  4  0  0  0  0  0  0
  1  2  1  0  0  0  0 
  2  3  1  0  0  0  0 
  2  4  1  0  0  0  0 
  4  5  1  0  0  0  0 
  5  6  2  0  0  0  0 
  6  7  1  0  0  0  0 
  7  8  2  0  0  0  0 
  8  9  1  0  0  0  0 
  9 10  2  0  0  0  0 
  5 10  1  0  0  0  0 
M  CHG  1   3   1
M  END
> <Mol Weight>
135.2062

> <Formula>
C9H13N

> <CdId>
37

> <RCDK_LipinskiFailures>
0

> <source>
FDA

> <name>
Amphetamine

> <ABUNDANCE>
100% at pH 4.8

> <BLABBER_CHARGE>
1

> <inchi>
1S/C9H13N/c1-8(10)7-9-5-3-2-4-6-9/h2-6,8H,7,10H2,1H3

> <activity>
0

$$$$

  CDK     0331111707

 25 27  0  0  0  0  0  0  0  0999 V2000
    2.5600    0.7927    0.0000 C   0  0  0  0  0  4  0  0  0  0  0  0
    1.9469    1.3448    0.0000 C   0  0  0  0  0  4  0  0  0  0  0  0
    2.5600    1.8968    0.0000 C   0  0  0  0  0  4  0  0  0  0  0  0
    1.4620    0.6773    0.0000 C   0  0  0  0  0  4  0  0  0  0  0  0
    1.7169   -0.1073    0.0000 C   0  0  0  0  0  4  0  0  0  0  0  0
    2.5239   -0.2788    0.0000 O   0  0  0  0  0  2  0  0  0  0  0  0
    1.1649   -0.7204    0.0000 O   0  0  0  0  0  1  0  0  0  0  0  0
    0.6773    0.9323    0.0000 N   0  0  0  0  0  3  0  0  0  0  0  0
   -0.1477    0.9323    0.0000 C   0  0  0  0  0  4  0  0  0  0  0  0
   -0.7310    0.3489    0.0000 O   0  0  0  0  0  2  0  0  0  0  0  0
   -0.1477    1.7573    0.0000 C   0  0  0  0  0  4  0  0  0  0  0  0
   -0.7310    2.3406    0.0000 N   0  0  0  0  0  3  0  0  0  0  0  0
   -0.5175    3.1375    0.0000 C   0  0  0  0  0  4  0  0  0  0  0  0
    0.2794    3.3511    0.0000 O   0  0  0  0  0  2  0  0  0  0  0  0
   -1.1009    3.7209    0.0000 C   0  0  0  0  0  4  0  0  0  0  0  0
   -1.8977    3.5074    0.0000 N   0  0  0  0  0  4  0  0  0  0  0  0
   -0.8873    4.5178    0.0000 C   0  0  0  0  0  4  0  0  0  0  0  0
   -1.4707    5.1011    0.0000 C   0  0  0  0  0  4  0  0  0  0  0  0
   -1.2572    5.8980    0.0000 C   0  0  0  0  0  4  0  0  0  0  0  0
   -0.4603    6.1116    0.0000 C   0  0  0  0  0  4  0  0  0  0  0  0
   -0.2468    6.9085    0.0000 O   0  0  0  0  0  2  0  0  0  0  0  0
    0.1231    5.5282    0.0000 C   0  0  0  0  0  4  0  0  0  0  0  0
   -0.0904    4.7313    0.0000 C   0  0  0  0  0  4  0  0  0  0  0  0
    0.6773    1.7573    0.0000 C   0  0  0  0  0  4  0  0  0  0  0  0
    1.4620    2.0122    0.0000 S   0  0  0  0  0  2  0  0  0  0  0  0
  1  2  1  0  0  0  0 
  2  3  1  0  0  0  0 
  2  4  1  0  0  0  0 
  4  5  1  0  0  0  0 
  5  6  2  0  0  0  0 
  5  7  1  0  0  0  0 
  4  8  1  0  0  0  0 
  8  9  1  0  0  0  0 
  9 10  2  0  0  0  0 
  9 11  1  0  0  0  0 
 11 12  1  0  0  0  0 
 12 13  1  0  0  0  0 
 13 14  2  0  0  0  0 
 13 15  1  0  0  0  0 
 15 16  1  0  0  0  0 
 15 17  1  0  0  0  0 
 17 18  2  0  0  0  0 
 18 19  1  0  0  0  0 
 19 20  2  0  0  0  0 
 20 21  1  0  0  0  0 
 20 22  1  0  0  0  0 
 22 23  2  0  0  0  0 
 17 23  1  0  0  0  0 
 11 24  1  0  0  0  0 
  8 24  1  0  0  0  0 
 24 25  1  0  0  0  0 
  2 25  1  0  0  0  0 
M  CHG  1   7  -1
M  CHG  1  16   1
M  END
> <Mol Weight>
365.404

> <Formula>
C16H19N3O5S

> <CdId>
36

> <RCDK_LipinskiFailures>
0

> <source>
FDA

> <name>
Amoxicillin

> <ABUNDANCE>
98.37% at pH 4.8

> <BLABBER_CHARGE>
0

> <inchi>
1S/C16H19N3O5S/c1-16(2)11(15(23)24)19-13(22)10(14(19)25-16)18-12(21)9(17)7-3-5-8(20)6-4-7/h3-6,9-11,14,20H,17H2,1-2H3,(H,18,21)(H,23,24)

> <activity>
0

$$$$

  CDK     0331111707

 17 18  0  0  0  0  0  0  0  0999 V2000
   -0.0980   -0.5558    0.0000 C   0  0  0  0  0  4  0  0  0  0  0  0
    0.7145   -0.4125    0.0000 C   0  0  0  0  0  4  0  0  0  0  0  0
    1.2448   -1.0445    0.0000 C   0  0  0  0  0  4  0  0  0  0  0  0
    1.9592   -1.4570    0.0000 C   0  0  0  0  0  4  0  0  0  0  0  0
    1.9592   -2.2820    0.0000 C   0  0  0  0  0  4  0  0  0  0  0  0
    1.2448   -2.6945    0.0000 C   0  0  0  0  0  4  0  0  0  0  0  0
    1.2448   -3.5195    0.0000 O   0  0  0  0  0  2  0  0  0  0  0  0
    0.5303   -2.2820    0.0000 N   0  0  0  0  0  3  0  0  0  0  0  0
    0.5303   -1.4570    0.0000 C   0  0  0  0  0  4  0  0  0  0  0  0
   -0.1842   -1.0445    0.0000 O   0  0  0  0  0  2  0  0  0  0  0  0
    1.7751   -0.4125    0.0000 C   0  0  0  0  0  4  0  0  0  0  0  0
    1.4929    0.3627    0.0000 C   0  0  0  0  0  4  0  0  0  0  0  0
    2.0232    0.9947    0.0000 C   0  0  0  0  0  4  0  0  0  0  0  0
    2.8357    0.8515    0.0000 C   0  0  0  0  0  4  0  0  0  0  0  0
    3.3660    1.4835    0.0000 N   0  0  0  0  0  3  0  0  0  0  0  0
    3.1178    0.0762    0.0000 C   0  0  0  0  0  4  0  0  0  0  0  0
    2.5875   -0.5558    0.0000 C   0  0  0  0  0  4  0  0  0  0  0  0
  1  2  1  0  0  0  0 
  2  3  1  0  0  0  0 
  3  4  1  0  0  0  0 
  4  5  1  0  0  0  0 
  5  6  1  0  0  0  0 
  6  7  2  0  0  0  0 
  6  8  1  0  0  0  0 
  8  9  1  0  0  0  0 
  3  9  1  0  0  0  0 
  9 10  2  0  0  0  0 
  3 11  1  0  0  0  0 
 11 12  2  0  0  0  0 
 12 13  1  0  0  0  0 
 13 14  2  0  0  0  0 
 14 15  1  0  0  0  0 
 14 16  1  0  0  0  0 
 16 17  2  0  0  0  0 
 11 17  1  0  0  0  0 
M  END
> <Mol Weight>
232.2783

> <Formula>
C13H16N2O2

> <CdId>
32

> <RCDK_LipinskiFailures>
0

> <source>
FDA

> <name>
Aminoglutethimide

> <ABUNDANCE>
79.81% at pH 4.8

> <BLABBER_CHARGE>


> <inchi>
1S/C13H16N2O2/c1-2-13(8-7-11(16)15-12(13)17)9-3-5-10(14)6-4-9/h3-6H,2,7-8,14H2,1H3,(H,15,16,17)

> <activity>
0

$$$$

  CDK     0331111707

 25 27  0  0  0  0  0  0  0  0999 V2000
    0.2961   -5.4151    0.0000 O   0  0  0  0  0  2  0  0  0  0  0  0
    1.0105   -5.8276    0.0000 C   0  0  0  0  0  4  0  0  0  0  0  0
    1.0105   -6.6526    0.0000 O   0  0  0  0  0  2  0  0  0  0  0  0
    1.7250   -5.4151    0.0000 C   0  0  0  0  0  4  0  0  0  0  0  0
    2.4395   -5.8276    0.0000 C   0  0  0  0  0  4  0  0  0  0  0  0
    3.1539   -5.4151    0.0000 C   0  0  0  0  0  4  0  0  0  0  0  0
    3.8684   -5.8276    0.0000 C   0  0  0  0  0  4  0  0  0  0  0  0
    4.5829   -5.4151    0.0000 C   0  0  0  0  0  4  0  0  0  0  0  0
    5.2974   -5.8276    0.0000 C   0  0  0  0  0  4  0  0  0  0  0  0
    6.0118   -5.4151    0.0000 N   0  0  0  0  0  4  0  0  0  0  0  0
    6.7263   -5.8276    0.0000 C   0  0  0  0  0  4  0  0  0  0  0  0
    7.4079   -5.3628    0.0000 C   0  0  0  0  0  4  0  0  0  0  0  0
    7.2244   -4.5585    0.0000 C   0  0  0  0  0  4  0  0  0  0  0  0
    7.8291   -3.9974    0.0000 C   0  0  0  0  0  4  0  0  0  0  0  0
    8.6175   -4.2405    0.0000 C   0  0  0  0  0  4  0  0  0  0  0  0
    8.8011   -5.0449    0.0000 C   0  0  0  0  0  4  0  0  0  0  0  0
    8.1963   -5.6060    0.0000 C   0  0  0  0  0  4  0  0  0  0  0  0
    8.4977   -6.3740    0.0000 C   0  0  0  0  0  4  0  0  0  0  0  0
    8.0852   -7.0884    0.0000 C   0  0  0  0  0  4  0  0  0  0  0  0
    7.2694   -7.2114    0.0000 C   0  0  0  0  0  4  0  0  0  0  0  0
    7.0858   -8.0157    0.0000 C   0  0  0  0  0  4  0  0  0  0  0  0
    6.2975   -8.2589    0.0000 C   0  0  0  0  0  4  0  0  0  0  0  0
    5.6927   -7.6978    0.0000 C   0  0  0  0  0  4  0  0  0  0  0  0
    5.8763   -6.8934    0.0000 C   0  0  0  0  0  4  0  0  0  0  0  0
    6.6646   -6.6503    0.0000 C   0  0  0  0  0  4  0  0  0  0  0  0
  1  2  1  0  0  0  0 
  2  3  2  0  0  0  0 
  2  4  1  0  0  0  0 
  4  5  1  0  0  0  0 
  5  6  1  0  0  0  0 
  6  7  1  0  0  0  0 
  7  8  1  0  0  0  0 
  8  9  1  0  0  0  0 
  9 10  1  0  0  0  0 
 10 11  1  0  0  0  0 
 11 12  1  0  0  0  0 
 12 13  2  0  0  0  0 
 13 14  1  0  0  0  0 
 14 15  2  0  0  0  0 
 15 16  1  0  0  0  0 
 16 17  2  0  0  0  0 
 12 17  1  0  0  0  0 
 17 18  1  0  0  0  0 
 18 19  1  0  0  0  0 
 19 20  1  0  0  0  0 
 20 21  2  0  0  0  0 
 21 22  1  0  0  0  0 
 22 23  2  0  0  0  0 
 23 24  1  0  0  0  0 
 24 25  2  0  0  0  0 
 11 25  1  0  0  0  0 
 20 25  1  0  0  0  0 
M  CHG  1  10   1
M  END
> <Mol Weight>
337.4553

> <Formula>
C22H27NO2

> <CdId>
30

> <RCDK_LipinskiFailures>
0

> <source>
BYLER

> <name>
amineptine

> <ABUNDANCE>
53.93% at pH 4.8

> <BLABBER_CHARGE>
1

> <inchi>
1S/C22H27NO2/c24-21(25)13-3-1-2-8-16-23-22-19-11-6-4-9-17(19)14-15-18-10-5-7-12-20(18)22/h4-7,9-12,22-23H,1-3,8,13-16H2,(H,24,25)

> <activity>
0

$$$$

  CDK     0331111707

 16 16  0  0  0  0  0  0  0  0999 V2000
    2.1434   -2.8875    0.0000 N   0  0  0  0  0  4  0  0  0  0  0  0
    1.4289   -2.4750    0.0000 C   0  0  0  0  0  4  0  0  0  0  0  0
    0.7145   -2.8875    0.0000 N   0  0  0  0  0  3  0  0  0  0  0  0
    1.4289   -1.6500    0.0000 N   0  0  0  0  0  3  0  0  0  0  0  0
    0.7145   -1.2375    0.0000 N   0  0  0  0  0  3  0  0  0  0  0  0
    0.7145   -0.4125    0.0000 C   0  0  0  0  0  4  0  0  0  0  0  0
   -0.0000    0.0000    0.0000 C   0  0  0  0  0  4  0  0  0  0  0  0
    0.0000    0.8250    0.0000 C   0  0  0  0  0  4  0  0  0  0  0  0
    0.7145    1.2375    0.0000 C   0  0  0  0  0  4  0  0  0  0  0  0
    1.4289    0.8250    0.0000 C   0  0  0  0  0  4  0  0  0  0  0  0
    1.4289    0.0000    0.0000 C   0  0  0  0  0  4  0  0  0  0  0  0
    0.7145    2.0625    0.0000 N   0  0  0  0  0  4  0  0  0  0  0  0
    0.0000    2.4750    0.0000 N   0  0  0  0  0  3  0  0  0  0  0  0
    0.0000    3.3000    0.0000 C   0  0  0  0  0  4  0  0  0  0  0  0
   -0.7145    3.7125    0.0000 N   0  0  0  0  0  3  0  0  0  0  0  0
    0.7145    3.7125    0.0000 S   0  0  0  0  0  2  0  0  0  0  0  0
  1  2  2  0  0  0  0 
  2  3  1  0  0  0  0 
  2  4  1  0  0  0  0 
  4  5  1  0  0  0  0 
  5  6  2  0  0  0  0 
  6  7  1  0  0  0  0 
  7  8  2  0  0  0  0 
  8  9  1  0  0  0  0 
  9 10  1  0  0  0  0 
 10 11  2  0  0  0  0 
  6 11  1  0  0  0  0 
  9 12  2  0  0  0  0 
 12 13  1  0  0  0  0 
 13 14  1  0  0  0  0 
 14 15  1  0  0  0  0 
 14 16  2  0  0  0  0 
M  CHG  1   1   1
M  CHG  1  12   1
M  END
> <Mol Weight>
237.285

> <Formula>
C8H11N7S

> <CdId>
26

> <RCDK_LipinskiFailures>
0

> <source>
FDA

> <name>
Ambazone

> <ABUNDANCE>
98.51% at pH 4.8

> <BLABBER_CHARGE>
2

> <CHECK TAUTOMER>
Multiple tautomers in input structure. Results could be inaccurate.

> <inchi>
1S/C8H11N7S/c9-7(10)14-12-5-1-3-6(4-2-5)13-15-8(11)16/h1-4H,(H4,9,10,14)(H3,11,15,16)/b12-5-,13-6-

> <activity>
0

$$$$

  CDK     0331111707

 30 32  0  0  0  0  0  0  0  0999 V2000
    1.0488    7.4976    0.0000 C   0  0  0  0  0  4  0  0  0  0  0  0
    0.5185    8.1296    0.0000 C   0  0  0  0  0  4  0  0  0  0  0  0
    0.8006    8.9048    0.0000 C   0  0  0  0  0  4  0  0  0  0  0  0
    0.2703    9.5368    0.0000 O   0  0  0  0  0  2  0  0  0  0  0  0
    1.6131    9.0481    0.0000 N   0  0  0  0  0  3  0  0  0  0  0  0
    1.8953    9.8233    0.0000 C   0  0  0  0  0  4  0  0  0  0  0  0
    1.3650   10.4553    0.0000 C   0  0  0  0  0  4  0  0  0  0  0  0
    1.6471   11.2305    0.0000 C   0  0  0  0  0  4  0  0  0  0  0  0
    2.4596   11.3738    0.0000 C   0  0  0  0  0  4  0  0  0  0  0  0
    2.9899   10.7418    0.0000 C   0  0  0  0  0  4  0  0  0  0  0  0
    2.7077    9.9666    0.0000 C   0  0  0  0  0  4  0  0  0  0  0  0
    2.1434    8.4161    0.0000 C   0  0  0  0  0  4  0  0  0  0  0  0
    2.8579    8.0036    0.0000 C   0  0  0  0  0  4  0  0  0  0  0  0
    2.8579    7.1786    0.0000 C   0  0  0  0  0  4  0  0  0  0  0  0
    2.1434    6.7661    0.0000 N   0  0  0  0  0  4  0  0  0  0  0  0
    2.1434    5.9411    0.0000 C   0  0  0  0  0  4  0  0  0  0  0  0
    1.4289    5.5286    0.0000 C   0  0  0  0  0  4  0  0  0  0  0  0
    1.4289    4.7036    0.0000 N   0  0  0  0  0  3  0  0  0  0  0  0
    2.0964    4.2187    0.0000 N   0  0  0  0  0  3  0  0  0  0  0  0
    1.8414    3.4340    0.0000 N   0  0  0  0  0  3  0  0  0  0  0  0
    1.0164    3.4340    0.0000 N   0  0  0  0  0  3  0  0  0  0  0  0
    0.5315    2.7666    0.0000 C   0  0  0  0  0  4  0  0  0  0  0  0
    0.8671    2.0129    0.0000 C   0  0  0  0  0  4  0  0  0  0  0  0
    0.7615    4.2187    0.0000 C   0  0  0  0  0  4  0  0  0  0  0  0
   -0.0231    4.4736    0.0000 O   0  0  0  0  0  2  0  0  0  0  0  0
    1.4289    7.1786    0.0000 C   0  0  0  0  0  4  0  0  0  0  0  0
    1.4289    8.0036    0.0000 C   0  0  0  0  0  4  0  0  0  0  0  0
    2.6737    9.0481    0.0000 C   0  0  0  0  0  4  0  0  0  0  0  0
    3.4862    8.9048    0.0000 O   0  0  0  0  0  2  0  0  0  0  0  0
    3.7683    8.1296    0.0000 C   0  0  0  0  0  4  0  0  0  0  0  0
  1  2  1  0  0  0  0 
  2  3  1  0  0  0  0 
  3  4  2  0  0  0  0 
  3  5  1  0  0  0  0 
  5  6  1  0  0  0  0 
  6  7  2  0  0  0  0 
  7  8  1  0  0  0  0 
  8  9  2  0  0  0  0 
  9 10  1  0  0  0  0 
 10 11  2  0  0  0  0 
  6 11  1  0  0  0  0 
  5 12  1  0  0  0  0 
 12 13  1  0  0  0  0 
 13 14  1  0  0  0  0 
 14 15  1  0  0  0  0 
 15 16  1  0  0  0  0 
 16 17  1  0  0  0  0 
 17 18  1  0  0  0  0 
 18 19  1  0  0  0  0 
 19 20  2  0  0  0  0 
 20 21  1  0  0  0  0 
 21 22  1  0  0  0  0 
 22 23  1  0  0  0  0 
 21 24  1  0  0  0  0 
 18 24  1  0  0  0  0 
 24 25  2  0  0  0  0 
 15 26  1  0  0  0  0 
 26 27  1  0  0  0  0 
 12 27  1  0  0  0  0 
 12 28  1  0  0  0  0 
 28 29  1  0  0  0  0 
 29 30  1  0  0  0  0 
M  CHG  1  15   1
M  END
> <Mol Weight>
416.5172

> <Formula>
C21H32N6O3

> <CdId>
22

> <RCDK_LipinskiFailures>
0

> <source>
FDA

> <name>
Alfentanil

> <ABUNDANCE>
98.35% at pH 4.8

> <BLABBER_CHARGE>
1

> <inchi>
1S/C21H32N6O3/c1-4-19(28)27(18-9-7-6-8-10-18)21(17-30-3)11-13-24(14-12-21)15-16-26-20(29)25(5-2)22-23-26/h6-10H,4-5,11-17H2,1-3H3

> <activity>
0

$$$$

  CDK     0331111707

 14 14  0  0  0  0  0  0  0  0999 V2000
    3.4175    0.5872    0.0000 C   0  0  0  0  0  4  0  0  0  0  0  0
    2.6329    0.3323    0.0000 C   0  0  0  0  0  4  0  0  0  0  0  0
    2.0198    0.8843    0.0000 C   0  0  0  0  0  4  0  0  0  0  0  0
    1.2352    0.6294    0.0000 N   0  0  0  0  0  3  0  0  0  0  0  0
    0.9803   -0.1553    0.0000 C   0  0  0  0  0  4  0  0  0  0  0  0
    0.1553   -0.1553    0.0000 N   0  0  0  0  0  3  0  0  0  0  0  0
   -0.0997    0.6294    0.0000 C   0  0  0  0  0  4  0  0  0  0  0  0
   -0.8843    0.8843    0.0000 C   0  0  0  0  0  4  0  0  0  0  0  0
   -1.0558    1.6913    0.0000 C   0  0  0  0  0  4  0  0  0  0  0  0
   -1.8405    1.9462    0.0000 C   0  0  0  0  0  4  0  0  0  0  0  0
   -0.4427    2.2433    0.0000 C   0  0  0  0  0  4  0  0  0  0  0  0
    0.5678    1.1143    0.0000 C   0  0  0  0  0  4  0  0  0  0  0  0
    0.5678    1.9393    0.0000 S   0  0  0  0  0  2  0  0  0  0  0  0
    1.4652   -0.8227    0.0000 S   0  0  0  0  0  2  0  0  0  0  0  0
  1  2  2  0  0  0  0 
  2  3  1  0  0  0  0 
  3  4  1  0  0  0  0 
  4  5  1  0  0  0  0 
  5  6  1  0  0  0  0 
  6  7  1  0  0  0  0 
  7  8  1  0  0  0  0 
  8  9  1  0  0  0  0 
  9 10  1  0  0  0  0 
  9 11  1  0  0  0  0 
  7 12  1  0  0  0  0 
  4 12  1  0  0  0  0 
 12 13  2  0  0  0  0 
  5 14  2  0  0  0  0 
M  END
> <Mol Weight>
228.377

> <Formula>
C10H16N2S2

> <CdId>
21

> <RCDK_LipinskiFailures>
0

> <source>
FDA

> <name>
Albutoin

> <ABUNDANCE>
100% at pH 4.8

> <BLABBER_CHARGE>


> <inchi>
1S/C10H16N2S2/c1-4-5-12-9(13)8(6-7(2)3)11-10(12)14/h4,7-8H,1,5-6H2,2-3H3,(H,11,14)

> <activity>
0

$$$$

  CDK     0331111707

 17 18  0  0  0  0  0  0  0  0999 V2000
    6.2102    1.9354    0.0000 C   0  0  0  0  0  4  0  0  0  0  0  0
    5.4957    2.3479    0.0000 C   0  0  0  0  0  4  0  0  0  0  0  0
    4.7812    1.9354    0.0000 C   0  0  0  0  0  4  0  0  0  0  0  0
    4.0668    2.3479    0.0000 S   0  0  0  0  0  2  0  0  0  0  0  0
    3.3523    1.9354    0.0000 C   0  0  0  0  0  4  0  0  0  0  0  0
    3.3523    1.1104    0.0000 C   0  0  0  0  0  4  0  0  0  0  0  0
    2.6378    0.6979    0.0000 C   0  0  0  0  0  4  0  0  0  0  0  0
    1.9233    1.1104    0.0000 C   0  0  0  0  0  4  0  0  0  0  0  0
    1.1387    0.8555    0.0000 N   0  0  0  0  0  3  0  0  0  0  0  0
    0.6538    1.5229    0.0000 C   0  0  0  0  0  4  0  0  0  0  0  0
   -0.1712    1.5229    0.0000 N   0  0  0  0  0  3  0  0  0  0  0  0
   -0.5837    2.2374    0.0000 C   0  0  0  0  0  4  0  0  0  0  0  0
   -1.4087    2.2374    0.0000 O   0  0  0  0  0  2  0  0  0  0  0  0
   -0.1712    2.9519    0.0000 O   0  0  0  0  0  1  0  0  0  0  0  0
    1.1387    2.1904    0.0000 N   0  0  0  0  0  2  0  0  0  0  0  0
    1.9233    1.9354    0.0000 C   0  0  0  0  0  4  0  0  0  0  0  0
    2.6378    2.3479    0.0000 C   0  0  0  0  0  4  0  0  0  0  0  0
  1  2  1  0  0  0  0 
  2  3  1  0  0  0  0 
  3  4  1  0  0  0  0 
  4  5  1  0  0  0  0 
  5  6  2  0  0  0  0 
  6  7  1  0  0  0  0 
  7  8  2  0  0  0  0 
  8  9  1  0  0  0  0 
  9 10  2  0  0  0  0 
 10 11  1  0  0  0  0 
 11 12  1  0  0  0  0 
 12 13  2  0  0  0  0 
 12 14  1  0  0  0  0 
 10 15  1  0  0  0  0 
 15 16  1  0  0  0  0 
  8 16  1  0  0  0  0 
 16 17  2  0  0  0  0 
  5 17  1  0  0  0  0 
M  CHG  1  14  -1
M  CHG  1  15  -1
M  END
> <Mol Weight>
251.305

> <Formula>
C11H13N3O2S

> <CdId>
20

> <RCDK_LipinskiFailures>
0

> <source>
FDA

> <name>
Albendazole

> <ABUNDANCE>
92.19% at pH 4.8

> <BLABBER_CHARGE>
-2

> <CHECK TAUTOMER>
Multiple tautomers in input structure. Results could be inaccurate.

> <inchi>
1S/C11H13N3O2S/c1-2-5-17-7-3-4-8-9(6-7)13-10(12-8)14-11(15)16/h3-4,6H,2,5H2,1H3,(H,15,16)(H2,12,13,14)

> <activity>
0

$$$$

  CDK     0331111707

 19 21  0  0  0  0  0  0  0  0999 V2000
    3.2789    2.0625    0.0000 N   0  0  0  0  0  3  0  0  0  0  0  0
    3.2789    1.2375    0.0000 C   0  0  0  0  0  4  0  0  0  0  0  0
    3.9934    0.8250    0.0000 N   0  0  0  0  0  3  0  0  0  0  0  0
    3.9934    0.0000    0.0000 C   0  0  0  0  0  4  0  0  0  0  0  0
    3.2789   -0.4125    0.0000 N   0  0  0  0  0  3  0  0  0  0  0  0
    2.5645    0.0000    0.0000 C   0  0  0  0  0  4  0  0  0  0  0  0
    2.5645    0.8250    0.0000 C   0  0  0  0  0  4  0  0  0  0  0  0
    1.7798    1.0799    0.0000 N   0  0  0  0  0  3  0  0  0  0  0  0
    1.2949    0.4125    0.0000 C   0  0  0  0  0  4  0  0  0  0  0  0
    1.7798   -0.2549    0.0000 N   0  0  0  0  0  3  0  0  0  0  0  0
    1.5249   -1.0396    0.0000 C   0  0  0  0  0  4  0  0  0  0  0  0
    2.0098   -1.7070    0.0000 O   0  0  0  0  0  2  0  0  0  0  0  0
    1.5249   -2.3744    0.0000 C   0  0  0  0  0  4  0  0  0  0  0  0
    1.7798   -3.1591    0.0000 C   0  0  0  0  0  4  0  0  0  0  0  0
    2.5868   -3.3306    0.0000 O   0  0  0  0  0  2  0  0  0  0  0  0
    0.7403   -2.1195    0.0000 C   0  0  0  0  0  4  0  0  0  0  0  0
    0.0728   -2.6044    0.0000 O   0  0  0  0  0  2  0  0  0  0  0  0
    0.7403   -1.2945    0.0000 C   0  0  0  0  0  4  0  0  0  0  0  0
    0.0728   -0.8096    0.0000 O   0  0  0  0  0  2  0  0  0  0  0  0
  1  2  1  0  0  0  0 
  2  3  2  0  0  0  0 
  3  4  1  0  0  0  0 
  4  5  2  0  0  0  0 
  5  6  1  0  0  0  0 
  6  7  2  0  0  0  0 
  2  7  1  0  0  0  0 
  7  8  1  0  0  0  0 
  8  9  2  0  0  0  0 
  9 10  1  0  0  0  0 
  6 10  1  0  0  0  0 
 10 11  1  0  0  0  0 
 11 12  1  0  0  0  0 
 12 13  1  0  0  0  0 
 13 14  1  0  0  0  0 
 14 15  1  0  0  0  0 
 13 16  1  0  0  0  0 
 16 17  1  0  0  0  0 
 16 18  1  0  0  0  0 
 11 18  1  0  0  0  0 
 18 19  1  0  0  0  0 
M  END
> <Mol Weight>
267.2413

> <Formula>
C10H13N5O4

> <CdId>
19

> <RCDK_LipinskiFailures>
0

> <source>
FDA

> <name>
Adenosine

> <ABUNDANCE>
82.67% at pH 4.8

> <BLABBER_CHARGE>


> <inchi>
1S/C10H13N5O4/c11-8-5-9(13-2-12-8)15(3-14-5)10-7(18)6(17)4(1-16)19-10/h2-4,6-7,10,16-18H,1H2,(H2,11,12,13)

> <activity>
0

$$$$

  CDK     0331111707

 10 11  0  0  0  0  0  0  0  0999 V2000
    3.2789    2.0625    0.0000 N   0  0  0  0  0  3  0  0  0  0  0  0
    3.2789    1.2375    0.0000 C   0  0  0  0  0  4  0  0  0  0  0  0
    3.9934    0.8250    0.0000 N   0  0  0  0  0  3  0  0  0  0  0  0
    3.9934    0.0000    0.0000 C   0  0  0  0  0  4  0  0  0  0  0  0
    3.2789   -0.4125    0.0000 N   0  0  0  0  0  3  0  0  0  0  0  0
    2.5645    0.0000    0.0000 C   0  0  0  0  0  4  0  0  0  0  0  0
    1.7798   -0.2549    0.0000 N   0  0  0  0  0  3  0  0  0  0  0  0
    1.2949    0.4125    0.0000 C   0  0  0  0  0  4  0  0  0  0  0  0
    1.7798    1.0799    0.0000 N   0  0  0  0  0  3  0  0  0  0  0  0
    2.5645    0.8250    0.0000 C   0  0  0  0  0  4  0  0  0  0  0  0
  1  2  1  0  0  0  0 
  2  3  2  0  0  0  0 
  3  4  1  0  0  0  0 
  4  5  2  0  0  0  0 
  5  6  1  0  0  0  0 
  6  7  1  0  0  0  0 
  7  8  2  0  0  0  0 
  8  9  1  0  0  0  0 
  9 10  1  0  0  0  0 
  2 10  1  0  0  0  0 
  6 10  2  0  0  0  0 
M  END
> <Mol Weight>
135.1267

> <Formula>
C5H5N5

> <CdId>
18

> <RCDK_LipinskiFailures>
0

> <source>
FDA

> <name>
Adenine

> <ABUNDANCE>
80.69% at pH 4.8

> <BLABBER_CHARGE>


> <CHECK TAUTOMER>
Multiple tautomers in input structure. Results could be inaccurate.

> <inchi>
1S/C5H5N5/c6-4-3-5(9-1-7-3)10-2-8-4/h1-2H,(H3,6,7,8,9,10)

> <activity>
0

$$$$

  CDK     0331111707

 13 13  0  0  0  0  0  0  0  0999 V2000
    3.5724    1.2375    0.0000 C   0  0  0  0  0  4  0  0  0  0  0  0
    2.8579    0.8250    0.0000 C   0  0  0  0  0  4  0  0  0  0  0  0
    2.8579   -0.0000    0.0000 O   0  0  0  0  0  2  0  0  0  0  0  0
    2.1434    1.2375    0.0000 O   0  0  0  0  0  2  0  0  0  0  0  0
    1.4289    0.8250    0.0000 C   0  0  0  0  0  4  0  0  0  0  0  0
    1.4289   -0.0000    0.0000 C   0  0  0  0  0  4  0  0  0  0  0  0
    0.7145   -0.4125    0.0000 C   0  0  0  0  0  4  0  0  0  0  0  0
    0.0000    0.0000    0.0000 C   0  0  0  0  0  4  0  0  0  0  0  0
    0.0000    0.8250    0.0000 C   0  0  0  0  0  4  0  0  0  0  0  0
    0.7145    1.2375    0.0000 C   0  0  0  0  0  4  0  0  0  0  0  0
    0.7145    2.0625    0.0000 C   0  0  0  0  0  4  0  0  0  0  0  0
    1.4289    2.4750    0.0000 O   0  0  0  0  0  2  0  0  0  0  0  0
    0.0000    2.4750    0.0000 O   0  0  0  0  0  1  0  0  0  0  0  0
  1  2  1  0  0  0  0 
  2  3  2  0  0  0  0 
  2  4  1  0  0  0  0 
  4  5  1  0  0  0  0 
  5  6  2  0  0  0  0 
  6  7  1  0  0  0  0 
  7  8  2  0  0  0  0 
  8  9  1  0  0  0  0 
  9 10  2  0  0  0  0 
  5 10  1  0  0  0  0 
 10 11  1  0  0  0  0 
 11 12  2  0  0  0  0 
 11 13  1  0  0  0  0 
M  CHG  1  13  -1
M  END
> <Mol Weight>
180.1574

> <Formula>
C9H8O4

> <CdId>
17

> <RCDK_LipinskiFailures>
0

> <source>
LOWE

> <name>
Acetylsalicylic_acid

> <ABUNDANCE>
94.13% at pH 4.8

> <BLABBER_CHARGE>
-1

> <inchi>
1S/C9H8O4/c1-6(10)13-8-5-3-2-4-7(8)9(11)12/h2-5H,1H3,(H,11,12)

> <activity>
0

$$$$

  CDK     0331111707

 16 16  0  0  0  0  0  0  0  0999 V2000
    3.5724    1.2375    0.0000 C   0  0  0  0  0  4  0  0  0  0  0  0
    2.8579    0.8250    0.0000 C   0  0  0  0  0  4  0  0  0  0  0  0
    2.8579   -0.0000    0.0000 O   0  0  0  0  0  2  0  0  0  0  0  0
    2.1434    1.2375    0.0000 N   0  0  0  0  0  3  0  0  0  0  0  0
    1.4289    0.8250    0.0000 C   0  0  0  0  0  4  0  0  0  0  0  0
    1.4289   -0.0000    0.0000 C   0  0  0  0  0  4  0  0  0  0  0  0
    0.7145   -0.4125    0.0000 C   0  0  0  0  0  4  0  0  0  0  0  0
    0.0000    0.0000    0.0000 C   0  0  0  0  0  4  0  0  0  0  0  0
    0.0000    0.8250    0.0000 C   0  0  0  0  0  4  0  0  0  0  0  0
   -0.7145    1.2375    0.0000 C   0  0  0  0  0  4  0  0  0  0  0  0
   -1.4289    0.8250    0.0000 O   0  0  0  0  0  2  0  0  0  0  0  0
   -0.7145    2.0625    0.0000 O   0  0  0  0  0  1  0  0  0  0  0  0
    0.7145    1.2375    0.0000 C   0  0  0  0  0  4  0  0  0  0  0  0
    0.7145    2.0625    0.0000 I   0  0  0  0  0  1  0  0  0  0  0  0
   -0.7145   -0.4125    0.0000 I   0  0  0  0  0  1  0  0  0  0  0  0
    2.1434   -0.4125    0.0000 I   0  0  0  0  0  1  0  0  0  0  0  0
  1  2  1  0  0  0  0 
  2  3  2  0  0  0  0 
  2  4  1  0  0  0  0 
  4  5  1  0  0  0  0 
  5  6  2  0  0  0  0 
  6  7  1  0  0  0  0 
  7  8  2  0  0  0  0 
  8  9  1  0  0  0  0 
  9 10  1  0  0  0  0 
 10 11  2  0  0  0  0 
 10 12  1  0  0  0  0 
  9 13  2  0  0  0  0 
  5 13  1  0  0  0  0 
 13 14  1  0  0  0  0 
  8 15  1  0  0  0  0 
  6 16  1  0  0  0  0 
M  CHG  1  12  -1
M  END
> <Mol Weight>
556.8623

> <Formula>
C9H6I3NO3

> <CdId>
16

> <RCDK_LipinskiFailures>
0

> <source>
FDA

> <name>
Acetrizoic acid

> <ABUNDANCE>
97.47% at pH 4.8

> <BLABBER_CHARGE>
-1

> <inchi>
1S/C9H6I3NO3/c1-3(14)13-8-5(11)2-4(10)6(7(8)12)9(15)16/h2H,1H3,(H,13,14)(H,15,16)

> <activity>
0

$$$$

  CDK     0331111707

 29 32  0  0  0  0  0  0  0  0999 V2000
    5.7158   -0.0000    0.0000 C   0  0  0  0  0  4  0  0  0  0  0  0
    5.0013   -0.4125    0.0000 C   0  0  0  0  0  4  0  0  0  0  0  0
    5.0013   -1.2375    0.0000 O   0  0  0  0  0  2  0  0  0  0  0  0
    4.2868   -0.0000    0.0000 C   0  0  0  0  0  4  0  0  0  0  0  0
    4.2868    0.8250    0.0000 C   0  0  0  0  0  4  0  0  0  0  0  0
    3.5724    1.2375    0.0000 C   0  0  0  0  0  4  0  0  0  0  0  0
    2.8579    0.8250    0.0000 C   0  0  0  0  0  4  0  0  0  0  0  0
    2.8579    0.0000    0.0000 C   0  0  0  0  0  4  0  0  0  0  0  0
    3.5724   -0.4125    0.0000 C   0  0  0  0  0  4  0  0  0  0  0  0
    2.1434   -0.4125    0.0000 N   0  0  0  0  0  3  0  0  0  0  0  0
    2.1434   -1.2375    0.0000 C   0  0  0  0  0  4  0  0  0  0  0  0
    1.4289   -1.6500    0.0000 C   0  0  0  0  0  4  0  0  0  0  0  0
    1.4289   -2.4750    0.0000 C   0  0  0  0  0  4  0  0  0  0  0  0
    0.7145   -2.8875    0.0000 N   0  0  0  0  0  3  0  0  0  0  0  0
    0.7145   -3.7125    0.0000 C   0  0  0  0  0  4  0  0  0  0  0  0
    0.0000   -4.1250    0.0000 C   0  0  0  0  0  4  0  0  0  0  0  0
   -0.7145   -3.7125    0.0000 N   0  0  0  0  0  4  0  0  0  0  0  0
   -1.4289   -4.1250    0.0000 C   0  0  0  0  0  4  0  0  0  0  0  0
   -2.1434   -3.7125    0.0000 C   0  0  0  0  0  4  0  0  0  0  0  0
   -2.8579   -4.1250    0.0000 O   0  0  0  0  0  2  0  0  0  0  0  0
   -0.7145   -2.8875    0.0000 C   0  0  0  0  0  4  0  0  0  0  0  0
    0.0000   -2.4750    0.0000 C   0  0  0  0  0  4  0  0  0  0  0  0
    1.4289   -0.0000    0.0000 C   0  0  0  0  0  4  0  0  0  0  0  0
    0.7145   -0.4125    0.0000 C   0  0  0  0  0  4  0  0  0  0  0  0
   -0.0000    0.0000    0.0000 C   0  0  0  0  0  4  0  0  0  0  0  0
    0.0000    0.8250    0.0000 C   0  0  0  0  0  4  0  0  0  0  0  0
    0.7145    1.2375    0.0000 C   0  0  0  0  0  4  0  0  0  0  0  0
    1.4289    0.8250    0.0000 C   0  0  0  0  0  4  0  0  0  0  0  0
    2.1434    1.2375    0.0000 S   0  0  0  0  0  2  0  0  0  0  0  0
  1  2  1  0  0  0  0 
  2  3  2  0  0  0  0 
  2  4  1  0  0  0  0 
  4  5  2  0  0  0  0 
  5  6  1  0  0  0  0 
  6  7  2  0  0  0  0 
  7  8  1  0  0  0  0 
  8  9  2  0  0  0  0 
  4  9  1  0  0  0  0 
  8 10  1  0  0  0  0 
 10 11  1  0  0  0  0 
 11 12  1  0  0  0  0 
 12 13  1  0  0  0  0 
 13 14  1  0  0  0  0 
 14 15  1  0  0  0  0 
 15 16  1  0  0  0  0 
 16 17  1  0  0  0  0 
 17 18  1  0  0  0  0 
 18 19  1  0  0  0  0 
 19 20  1  0  0  0  0 
 17 21  1  0  0  0  0 
 21 22  1  0  0  0  0 
 14 22  1  0  0  0  0 
 10 23  1  0  0  0  0 
 23 24  2  0  0  0  0 
 24 25  1  0  0  0  0 
 25 26  2  0  0  0  0 
 26 27  1  0  0  0  0 
 27 28  2  0  0  0  0 
 23 28  1  0  0  0  0 
 28 29  1  0  0  0  0 
  7 29  1  0  0  0  0 
M  CHG  1  17   1
M  END
> <Mol Weight>
411.56

> <Formula>
C23H29N3O2S

> <CdId>
15

> <RCDK_LipinskiFailures>
0

> <source>
FDA

> <name>
Acetophenazine

> <ABUNDANCE>
80.31% at pH 4.8

> <BLABBER_CHARGE>
1

> <inchi>
1S/C23H29N3O2S/c1-18(28)19-7-8-23-21(17-19)26(20-5-2-3-6-22(20)29-23)10-4-9-24-11-13-25(14-12-24)15-16-27/h2-3,5-8,17,27H,4,9-16H2,1H3

> <activity>
0

$$$$

  CDK     0331111707

 11 11  0  0  0  0  0  0  0  0999 V2000
    1.4289   -2.4750    0.0000 C   0  0  0  0  0  4  0  0  0  0  0  0
    1.4289   -1.6500    0.0000 C   0  0  0  0  0  4  0  0  0  0  0  0
    2.1434   -1.2375    0.0000 O   0  0  0  0  0  2  0  0  0  0  0  0
    0.7145   -1.2375    0.0000 N   0  0  0  0  0  3  0  0  0  0  0  0
    0.7145   -0.4125    0.0000 C   0  0  0  0  0  4  0  0  0  0  0  0
   -0.0000    0.0000    0.0000 C   0  0  0  0  0  4  0  0  0  0  0  0
    0.0000    0.8250    0.0000 C   0  0  0  0  0  4  0  0  0  0  0  0
    0.7145    1.2375    0.0000 C   0  0  0  0  0  4  0  0  0  0  0  0
    0.7145    2.0625    0.0000 O   0  0  0  0  0  2  0  0  0  0  0  0
    1.4289    0.8250    0.0000 C   0  0  0  0  0  4  0  0  0  0  0  0
    1.4289    0.0000    0.0000 C   0  0  0  0  0  4  0  0  0  0  0  0
  1  2  1  0  0  0  0 
  2  3  2  0  0  0  0 
  2  4  1  0  0  0  0 
  4  5  1  0  0  0  0 
  5  6  2  0  0  0  0 
  6  7  1  0  0  0  0 
  7  8  2  0  0  0  0 
  8  9  1  0  0  0  0 
  8 10  1  0  0  0  0 
 10 11  2  0  0  0  0 
  5 11  1  0  0  0  0 
M  END
> <Mol Weight>
151.1626

> <Formula>
C8H9NO2

> <CdId>
14

> <RCDK_LipinskiFailures>
0

> <source>
FDA

> <name>
Acetaminophen

> <ABUNDANCE>
100% at pH 4.8

> <BLABBER_CHARGE>


> <inchi>
1S/C8H9NO2/c1-6(10)9-7-2-4-8(11)5-3-7/h2-5,11H,1H3,(H,9,10)

> <activity>
0

$$$$

  CDK     0331111707

 33 35  0  0  0  0  0  0  0  0999 V2000
    4.0100   -3.7047    0.0000 C   0  0  0  0  0  4  0  0  0  0  0  0
    3.6744   -2.9510    0.0000 C   0  0  0  0  0  4  0  0  0  0  0  0
    2.9599   -3.3635    0.0000 C   0  0  0  0  0  4  0  0  0  0  0  0
    4.4590   -2.6961    0.0000 C   0  0  0  0  0  4  0  0  0  0  0  0
    5.1265   -3.1810    0.0000 O   0  0  0  0  0  2  0  0  0  0  0  0
    4.4590   -1.8711    0.0000 N   0  0  0  0  0  3  0  0  0  0  0  0
    3.6744   -1.6161    0.0000 C   0  0  0  0  0  4  0  0  0  0  0  0
    3.4195   -0.8315    0.0000 O   0  0  0  0  0  2  0  0  0  0  0  0
    3.1895   -2.2836    0.0000 N   0  0  0  0  0  3  0  0  0  0  0  0
    2.3645   -2.2836    0.0000 C   0  0  0  0  0  4  0  0  0  0  0  0
    1.9520   -2.9980    0.0000 C   0  0  0  0  0  4  0  0  0  0  0  0
    1.1270   -2.9980    0.0000 C   0  0  0  0  0  4  0  0  0  0  0  0
    0.7145   -3.7125    0.0000 O   0  0  0  0  0  2  0  0  0  0  0  0
   -0.1105   -3.7125    0.0000 C   0  0  0  0  0  4  0  0  0  0  0  0
   -0.5230   -4.4270    0.0000 C   0  0  0  0  0  4  0  0  0  0  0  0
   -1.3480   -4.4270    0.0000 C   0  0  0  0  0  4  0  0  0  0  0  0
   -1.7605   -3.7125    0.0000 C   0  0  0  0  0  4  0  0  0  0  0  0
   -1.3480   -2.9980    0.0000 C   0  0  0  0  0  4  0  0  0  0  0  0
   -0.5230   -2.9980    0.0000 C   0  0  0  0  0  4  0  0  0  0  0  0
   -2.5855   -3.7125    0.0000 C   0  0  0  0  0  4  0  0  0  0  0  0
   -2.9980   -4.4270    0.0000 C   0  0  0  0  0  4  0  0  0  0  0  0
   -3.8230   -4.4270    0.0000 C   0  0  0  0  0  4  0  0  0  0  0  0
   -4.2355   -3.7125    0.0000 C   0  0  0  0  0  4  0  0  0  0  0  0
   -3.8230   -2.9980    0.0000 C   0  0  0  0  0  4  0  0  0  0  0  0
   -2.9980   -2.9980    0.0000 C   0  0  0  0  0  4  0  0  0  0  0  0
   -5.0605   -3.7125    0.0000 O   0  0  0  0  0  2  0  0  0  0  0  0
   -5.4730   -4.4270    0.0000 C   0  0  0  0  0  4  0  0  0  0  0  0
   -5.8855   -5.1414    0.0000 F   0  0  0  0  0  1  0  0  0  0  0  0
   -6.1875   -4.0145    0.0000 F   0  0  0  0  0  1  0  0  0  0  0  0
   -4.7586   -4.8395    0.0000 F   0  0  0  0  0  1  0  0  0  0  0  0
    2.3645   -3.7125    0.0000 N   0  0  0  0  0  3  0  0  0  0  0  0
    3.1895   -3.7125    0.0000 C   0  0  0  0  0  4  0  0  0  0  0  0
    3.6020   -4.4270    0.0000 O   0  0  0  0  0  2  0  0  0  0  0  0
  1  2  1  0  0  0  0 
  2  3  1  0  0  0  0 
  2  4  1  0  0  0  0 
  4  5  2  0  0  0  0 
  4  6  1  0  0  0  0 
  6  7  1  0  0  0  0 
  7  8  2  0  0  0  0 
  7  9  1  0  0  0  0 
  2  9  1  0  0  0  0 
  9 10  1  0  0  0  0 
 10 11  1  0  0  0  0 
 11 12  1  0  0  0  0 
 12 13  1  0  0  0  0 
 13 14  1  0  0  0  0 
 14 15  2  0  0  0  0 
 15 16  1  0  0  0  0 
 16 17  2  0  0  0  0 
 17 18  1  0  0  0  0 
 18 19  2  0  0  0  0 
 14 19  1  0  0  0  0 
 17 20  1  0  0  0  0 
 20 21  2  0  0  0  0 
 21 22  1  0  0  0  0 
 22 23  2  0  0  0  0 
 23 24  1  0  0  0  0 
 24 25  2  0  0  0  0 
 20 25  1  0  0  0  0 
 23 26  1  0  0  0  0 
 26 27  1  0  0  0  0 
 27 28  1  0  0  0  0 
 27 29  1  0  0  0  0 
 27 30  1  0  0  0  0 
 11 31  1  0  0  0  0 
 31 32  1  0  0  0  0 
 32 33  2  0  0  0  0 
M  END
> <Mol Weight>
465.4224

> <Formula>
C22H22F3N3O5

> <CdId>
12

> <RCDK_LipinskiFailures>
0

> <source>
FDA

> <name>
ABT-770 formamide derivative

> <ABUNDANCE>
99.99% at pH 4.8

> <BLABBER_CHARGE>


> <inchi>
1S/C22H22F3N3O5/c1-21(2)19(30)27-20(31)28(21)11-16(26-13-29)12-32-17-7-3-14(4-8-17)15-5-9-18(10-6-15)33-22(23,24)25/h3-10,13,16H,11-12H2,1-2H3,(H,26,29)(H,27,30,31)

> <activity>
0

$$$$

  CDK     0331111707

 34 36  0  0  0  0  0  0  0  0999 V2000
    4.0100   -3.7047    0.0000 C   0  0  0  0  0  4  0  0  0  0  0  0
    3.6744   -2.9510    0.0000 C   0  0  0  0  0  4  0  0  0  0  0  0
    2.9599   -3.3635    0.0000 C   0  0  0  0  0  4  0  0  0  0  0  0
    4.4590   -2.6961    0.0000 C   0  0  0  0  0  4  0  0  0  0  0  0
    5.1265   -3.1810    0.0000 O   0  0  0  0  0  2  0  0  0  0  0  0
    4.4590   -1.8711    0.0000 N   0  0  0  0  0  3  0  0  0  0  0  0
    3.6744   -1.6161    0.0000 C   0  0  0  0  0  4  0  0  0  0  0  0
    3.4195   -0.8315    0.0000 O   0  0  0  0  0  2  0  0  0  0  0  0
    3.1895   -2.2836    0.0000 N   0  0  0  0  0  3  0  0  0  0  0  0
    2.3645   -2.2836    0.0000 C   0  0  0  0  0  4  0  0  0  0  0  0
    1.9520   -2.9980    0.0000 C   0  0  0  0  0  4  0  0  0  0  0  0
    1.1270   -2.9980    0.0000 C   0  0  0  0  0  4  0  0  0  0  0  0
    0.7145   -3.7125    0.0000 O   0  0  0  0  0  2  0  0  0  0  0  0
   -0.1105   -3.7125    0.0000 C   0  0  0  0  0  4  0  0  0  0  0  0
   -0.5230   -4.4270    0.0000 C   0  0  0  0  0  4  0  0  0  0  0  0
   -1.3480   -4.4270    0.0000 C   0  0  0  0  0  4  0  0  0  0  0  0
   -1.7605   -3.7125    0.0000 C   0  0  0  0  0  4  0  0  0  0  0  0
   -1.3480   -2.9980    0.0000 C   0  0  0  0  0  4  0  0  0  0  0  0
   -0.5230   -2.9980    0.0000 C   0  0  0  0  0  4  0  0  0  0  0  0
   -2.5855   -3.7125    0.0000 C   0  0  0  0  0  4  0  0  0  0  0  0
   -2.9980   -4.4270    0.0000 C   0  0  0  0  0  4  0  0  0  0  0  0
   -3.8230   -4.4270    0.0000 C   0  0  0  0  0  4  0  0  0  0  0  0
   -4.2355   -3.7125    0.0000 C   0  0  0  0  0  4  0  0  0  0  0  0
   -3.8230   -2.9980    0.0000 C   0  0  0  0  0  4  0  0  0  0  0  0
   -2.9980   -2.9980    0.0000 C   0  0  0  0  0  4  0  0  0  0  0  0
   -5.0605   -3.7125    0.0000 O   0  0  0  0  0  2  0  0  0  0  0  0
   -5.4730   -4.4270    0.0000 C   0  0  0  0  0  4  0  0  0  0  0  0
   -5.8855   -5.1414    0.0000 F   0  0  0  0  0  1  0  0  0  0  0  0
   -6.1875   -4.0145    0.0000 F   0  0  0  0  0  1  0  0  0  0  0  0
   -4.7586   -4.8395    0.0000 F   0  0  0  0  0  1  0  0  0  0  0  0
    2.3645   -3.7125    0.0000 N   0  0  0  0  0  3  0  0  0  0  0  0
    1.9520   -4.4270    0.0000 O   0  0  0  0  0  2  0  0  0  0  0  0
    3.1895   -3.7125    0.0000 C   0  0  0  0  0  4  0  0  0  0  0  0
    3.6020   -4.4270    0.0000 O   0  0  0  0  0  2  0  0  0  0  0  0
  1  2  1  0  0  0  0 
  2  3  1  0  0  0  0 
  2  4  1  0  0  0  0 
  4  5  2  0  0  0  0 
  4  6  1  0  0  0  0 
  6  7  1  0  0  0  0 
  7  8  2  0  0  0  0 
  7  9  1  0  0  0  0 
  2  9  1  0  0  0  0 
  9 10  1  0  0  0  0 
 10 11  1  0  0  0  0 
 11 12  1  0  0  0  0 
 12 13  1  0  0  0  0 
 13 14  1  0  0  0  0 
 14 15  2  0  0  0  0 
 15 16  1  0  0  0  0 
 16 17  2  0  0  0  0 
 17 18  1  0  0  0  0 
 18 19  2  0  0  0  0 
 14 19  1  0  0  0  0 
 17 20  1  0  0  0  0 
 20 21  2  0  0  0  0 
 21 22  1  0  0  0  0 
 22 23  2  0  0  0  0 
 23 24  1  0  0  0  0 
 24 25  2  0  0  0  0 
 20 25  1  0  0  0  0 
 23 26  1  0  0  0  0 
 26 27  1  0  0  0  0 
 27 28  1  0  0  0  0 
 27 29  1  0  0  0  0 
 27 30  1  0  0  0  0 
 11 31  1  0  0  0  0 
 31 32  1  0  0  0  0 
 31 33  1  0  0  0  0 
 33 34  2  0  0  0  0 
M  END
> <Mol Weight>
481.4218

> <Formula>
C22H22F3N3O6

> <CdId>
11

> <RCDK_LipinskiFailures>
0

> <source>
FDA

> <name>
ABT-770

> <ABUNDANCE>
99.99% at pH 4.8

> <BLABBER_CHARGE>


> <inchi>
1S/C22H22F3N3O6/c1-21(2)19(30)26-20(31)27(21)11-16(28(32)13-29)12-33-17-7-3-14(4-8-17)15-5-9-18(10-6-15)34-22(23,24)25/h3-10,13,16,32H,11-12H2,1-2H3,(H,26,30,31)

> <activity>
0

$$$$

  CDK     0331111707

 33 35  0  0  0  0  0  0  0  0999 V2000
   -1.1027   -7.0400    0.0000 C   0  0  0  0  0  4  0  0  0  0  0  0
   -1.0164   -6.2195    0.0000 C   0  0  0  0  0  4  0  0  0  0  0  0
   -0.2095   -6.3911    0.0000 C   0  0  0  0  0  4  0  0  0  0  0  0
   -1.8414   -6.2195    0.0000 O   0  0  0  0  0  2  0  0  0  0  0  0
   -2.0964   -5.4349    0.0000 C   0  0  0  0  0  4  0  0  0  0  0  0
   -1.4289   -4.9500    0.0000 C   0  0  0  0  0  4  0  0  0  0  0  0
   -0.7615   -5.4349    0.0000 O   0  0  0  0  0  2  0  0  0  0  0  0
   -1.4289   -4.1250    0.0000 C   0  0  0  0  0  4  0  0  0  0  0  0
   -2.1434   -3.7125    0.0000 C   0  0  0  0  0  4  0  0  0  0  0  0
   -2.1434   -2.8875    0.0000 S   0  0  0  0  0  6  0  0  0  0  0  0
   -1.3184   -2.8875    0.0000 O   0  0  0  0  0  2  0  0  0  0  0  0
   -2.9684   -2.8875    0.0000 O   0  0  0  0  0  2  0  0  0  0  0  0
   -2.1434   -2.0625    0.0000 C   0  0  0  0  0  4  0  0  0  0  0  0
   -2.8579   -1.6500    0.0000 C   0  0  0  0  0  4  0  0  0  0  0  0
   -2.8579   -0.8250    0.0000 C   0  0  0  0  0  4  0  0  0  0  0  0
   -2.1434   -0.4125    0.0000 C   0  0  0  0  0  4  0  0  0  0  0  0
   -1.4289   -0.8250    0.0000 C   0  0  0  0  0  4  0  0  0  0  0  0
   -1.4289   -1.6500    0.0000 C   0  0  0  0  0  4  0  0  0  0  0  0
   -2.1434    0.4125    0.0000 O   0  0  0  0  0  2  0  0  0  0  0  0
   -2.8579    0.8250    0.0000 C   0  0  0  0  0  4  0  0  0  0  0  0
   -3.5724    0.4125    0.0000 C   0  0  0  0  0  4  0  0  0  0  0  0
   -4.2868    0.8250    0.0000 C   0  0  0  0  0  4  0  0  0  0  0  0
   -4.2868    1.6500    0.0000 C   0  0  0  0  0  4  0  0  0  0  0  0
   -3.5724    2.0625    0.0000 C   0  0  0  0  0  4  0  0  0  0  0  0
   -2.8579    1.6500    0.0000 C   0  0  0  0  0  4  0  0  0  0  0  0
   -3.5724    2.8875    0.0000 O   0  0  0  0  0  2  0  0  0  0  0  0
   -4.2868    3.3000    0.0000 C   0  0  0  0  0  4  0  0  0  0  0  0
   -5.0013    3.7125    0.0000 F   0  0  0  0  0  1  0  0  0  0  0  0
   -3.8743    4.0145    0.0000 F   0  0  0  0  0  1  0  0  0  0  0  0
   -4.6993    2.5855    0.0000 F   0  0  0  0  0  1  0  0  0  0  0  0
   -0.7145   -3.7125    0.0000 N   0  0  0  0  0  3  0  0  0  0  0  0
   -0.7145   -2.8875    0.0000 C   0  0  0  0  0  4  0  0  0  0  0  0
    0.0000   -2.4750    0.0000 O   0  0  0  0  0  2  0  0  0  0  0  0
  1  2  1  0  0  0  0 
  2  3  1  0  0  0  0 
  2  4  1  0  0  0  0 
  4  5  1  0  0  0  0 
  5  6  1  0  0  0  0 
  6  7  1  0  0  0  0 
  2  7  1  0  0  0  0 
  6  8  1  0  0  0  0 
  8  9  1  0  0  0  0 
  9 10  1  0  0  0  0 
 10 11  2  0  0  0  0 
 10 12  2  0  0  0  0 
 10 13  1  0  0  0  0 
 13 14  2  0  0  0  0 
 14 15  1  0  0  0  0 
 15 16  2  0  0  0  0 
 16 17  1  0  0  0  0 
 17 18  2  0  0  0  0 
 13 18  1  0  0  0  0 
 16 19  1  0  0  0  0 
 19 20  1  0  0  0  0 
 20 21  2  0  0  0  0 
 21 22  1  0  0  0  0 
 22 23  2  0  0  0  0 
 23 24  1  0  0  0  0 
 24 25  2  0  0  0  0 
 20 25  1  0  0  0  0 
 24 26  1  0  0  0  0 
 26 27  1  0  0  0  0 
 27 28  1  0  0  0  0 
 27 29  1  0  0  0  0 
 27 30  1  0  0  0  0 
  8 31  1  0  0  0  0 
 31 32  1  0  0  0  0 
 32 33  2  0  0  0  0 
M  END
> <Mol Weight>
489.462

> <Formula>
C21H22F3NO7S

> <CdId>
10

> <RCDK_LipinskiFailures>
0

> <source>
FDA

> <name>
ABT-518 formamide derivative

> <ABUNDANCE>
100% at pH 4.8

> <BLABBER_CHARGE>


> <inchi>
1S/C21H22F3NO7S/c1-20(2)29-11-19(32-20)18(25-13-26)12-33(27,28)17-8-6-14(7-9-17)30-15-4-3-5-16(10-15)31-21(22,23)24/h3-10,13,18-19H,11-12H2,1-2H3,(H,25,26)

> <activity>
0

$$$$

  CDK     0331111707

 34 36  0  0  0  0  0  0  0  0999 V2000
   -1.1027   -7.0400    0.0000 C   0  0  0  0  0  4  0  0  0  0  0  0
   -1.0164   -6.2195    0.0000 C   0  0  0  0  0  4  0  0  0  0  0  0
   -0.2095   -6.3911    0.0000 C   0  0  0  0  0  4  0  0  0  0  0  0
   -1.8414   -6.2195    0.0000 O   0  0  0  0  0  2  0  0  0  0  0  0
   -2.0964   -5.4349    0.0000 C   0  0  0  0  0  4  0  0  0  0  0  0
   -1.4289   -4.9500    0.0000 C   0  0  0  0  0  4  0  0  0  0  0  0
   -0.7615   -5.4349    0.0000 O   0  0  0  0  0  2  0  0  0  0  0  0
   -1.4289   -4.1250    0.0000 C   0  0  0  0  0  4  0  0  0  0  0  0
   -2.1434   -3.7125    0.0000 C   0  0  0  0  0  4  0  0  0  0  0  0
   -2.1434   -2.8875    0.0000 S   0  0  0  0  0  6  0  0  0  0  0  0
   -1.3184   -2.8875    0.0000 O   0  0  0  0  0  2  0  0  0  0  0  0
   -2.9684   -2.8875    0.0000 O   0  0  0  0  0  2  0  0  0  0  0  0
   -2.1434   -2.0625    0.0000 C   0  0  0  0  0  4  0  0  0  0  0  0
   -2.8579   -1.6500    0.0000 C   0  0  0  0  0  4  0  0  0  0  0  0
   -2.8579   -0.8250    0.0000 C   0  0  0  0  0  4  0  0  0  0  0  0
   -2.1434   -0.4125    0.0000 C   0  0  0  0  0  4  0  0  0  0  0  0
   -1.4289   -0.8250    0.0000 C   0  0  0  0  0  4  0  0  0  0  0  0
   -1.4289   -1.6500    0.0000 C   0  0  0  0  0  4  0  0  0  0  0  0
   -2.1434    0.4125    0.0000 O   0  0  0  0  0  2  0  0  0  0  0  0
   -2.8579    0.8250    0.0000 C   0  0  0  0  0  4  0  0  0  0  0  0
   -3.5724    0.4125    0.0000 C   0  0  0  0  0  4  0  0  0  0  0  0
   -4.2868    0.8250    0.0000 C   0  0  0  0  0  4  0  0  0  0  0  0
   -4.2868    1.6500    0.0000 C   0  0  0  0  0  4  0  0  0  0  0  0
   -3.5724    2.0625    0.0000 C   0  0  0  0  0  4  0  0  0  0  0  0
   -2.8579    1.6500    0.0000 C   0  0  0  0  0  4  0  0  0  0  0  0
   -3.5724    2.8875    0.0000 O   0  0  0  0  0  2  0  0  0  0  0  0
   -4.2868    3.3000    0.0000 C   0  0  0  0  0  4  0  0  0  0  0  0
   -5.0013    3.7125    0.0000 F   0  0  0  0  0  1  0  0  0  0  0  0
   -3.8743    4.0145    0.0000 F   0  0  0  0  0  1  0  0  0  0  0  0
   -4.6993    2.5855    0.0000 F   0  0  0  0  0  1  0  0  0  0  0  0
   -0.7145   -3.7125    0.0000 N   0  0  0  0  0  3  0  0  0  0  0  0
    0.0000   -4.1250    0.0000 O   0  0  0  0  0  2  0  0  0  0  0  0
   -0.7145   -2.8875    0.0000 C   0  0  0  0  0  4  0  0  0  0  0  0
    0.0000   -2.4750    0.0000 O   0  0  0  0  0  2  0  0  0  0  0  0
  1  2  1  0  0  0  0 
  2  3  1  0  0  0  0 
  2  4  1  0  0  0  0 
  4  5  1  0  0  0  0 
  5  6  1  0  0  0  0 
  6  7  1  0  0  0  0 
  2  7  1  0  0  0  0 
  6  8  1  0  0  0  0 
  8  9  1  0  0  0  0 
  9 10  1  0  0  0  0 
 10 11  2  0  0  0  0 
 10 12  2  0  0  0  0 
 10 13  1  0  0  0  0 
 13 14  2  0  0  0  0 
 14 15  1  0  0  0  0 
 15 16  2  0  0  0  0 
 16 17  1  0  0  0  0 
 17 18  2  0  0  0  0 
 13 18  1  0  0  0  0 
 16 19  1  0  0  0  0 
 19 20  1  0  0  0  0 
 20 21  2  0  0  0  0 
 21 22  1  0  0  0  0 
 22 23  2  0  0  0  0 
 23 24  1  0  0  0  0 
 24 25  2  0  0  0  0 
 20 25  1  0  0  0  0 
 24 26  1  0  0  0  0 
 26 27  1  0  0  0  0 
 27 28  1  0  0  0  0 
 27 29  1  0  0  0  0 
 27 30  1  0  0  0  0 
  8 31  1  0  0  0  0 
 31 32  1  0  0  0  0 
 31 33  1  0  0  0  0 
 33 34  2  0  0  0  0 
M  END
> <Mol Weight>
505.461

> <Formula>
C21H22F3NO8S

> <CdId>
9

> <RCDK_LipinskiFailures>
0

> <source>
FDA

> <name>
ABT-518

> <ABUNDANCE>
100% at pH 4.8

> <BLABBER_CHARGE>


> <inchi>
1S/C21H22F3NO8S/c1-20(2)30-11-19(33-20)18(25(27)13-26)12-34(28,29)17-8-6-14(7-9-17)31-15-4-3-5-16(10-15)32-21(22,23)24/h3-10,13,18-19,27H,11-12H2,1-2H3

> <activity>
0

$$$$

  CDK     0331111707

 21 24  0  0  0  0  0  0  0  0999 V2000
    4.0668    2.3479    0.0000 N   0  0  0  0  0  3  0  0  0  0  0  0
    3.3523    1.9354    0.0000 C   0  0  0  0  0  4  0  0  0  0  0  0
    3.3523    1.1104    0.0000 N   0  0  0  0  0  3  0  0  0  0  0  0
    2.6378    0.6979    0.0000 C   0  0  0  0  0  4  0  0  0  0  0  0
    2.6378   -0.1271    0.0000 N   0  0  0  0  0  3  0  0  0  0  0  0
    3.3523   -0.5396    0.0000 C   0  0  0  0  0  4  0  0  0  0  0  0
    4.1773   -0.5396    0.0000 C   0  0  0  0  0  4  0  0  0  0  0  0
    3.7648   -1.2540    0.0000 C   0  0  0  0  0  4  0  0  0  0  0  0
    1.9233    1.1104    0.0000 C   0  0  0  0  0  4  0  0  0  0  0  0
    1.1387    0.8555    0.0000 N   0  0  0  0  0  3  0  0  0  0  0  0
    0.6538    1.5229    0.0000 C   0  0  0  0  0  4  0  0  0  0  0  0
    1.1387    2.1904    0.0000 N   0  0  0  0  0  3  0  0  0  0  0  0
    0.8838    2.9750    0.0000 C   0  0  0  0  0  4  0  0  0  0  0  0
    0.0992    3.2299    0.0000 C   0  0  0  0  0  4  0  0  0  0  0  0
    0.0992    4.0549    0.0000 C   0  0  0  0  0  4  0  0  0  0  0  0
   -0.5683    4.5399    0.0000 C   0  0  0  0  0  4  0  0  0  0  0  0
   -1.3220    4.2043    0.0000 O   0  0  0  0  0  2  0  0  0  0  0  0
    0.8838    4.3099    0.0000 C   0  0  0  0  0  4  0  0  0  0  0  0
    1.3687    3.6424    0.0000 C   0  0  0  0  0  4  0  0  0  0  0  0
    1.9233    1.9354    0.0000 C   0  0  0  0  0  4  0  0  0  0  0  0
    2.6378    2.3479    0.0000 N   0  0  0  0  0  4  0  0  0  0  0  0
  1  2  1  0  0  0  0 
  2  3  2  0  0  0  0 
  3  4  1  0  0  0  0 
  4  5  1  0  0  0  0 
  5  6  1  0  0  0  0 
  6  7  1  0  0  0  0 
  7  8  1  0  0  0  0 
  6  8  1  0  0  0  0 
  4  9  2  0  0  0  0 
  9 10  1  0  0  0  0 
 10 11  2  0  0  0  0 
 11 12  1  0  0  0  0 
 12 13  1  0  0  0  0 
 13 14  1  0  0  0  0 
 14 15  1  0  0  0  0 
 15 16  1  0  0  0  0 
 16 17  1  0  0  0  0 
 15 18  1  0  0  0  0 
 18 19  2  0  0  0  0 
 13 19  1  0  0  0  0 
 12 20  1  0  0  0  0 
  9 20  1  0  0  0  0 
 20 21  2  0  0  0  0 
  2 21  1  0  0  0  0 
M  CHG  1  21   1
M  END
> <Mol Weight>
286.3323

> <Formula>
C14H18N6O

> <CdId>
8

> <RCDK_LipinskiFailures>
0

> <source>
BYLER

> <name>
abacavir

> <ABUNDANCE>
79.24% at pH 4.8

> <BLABBER_CHARGE>
1

> <inchi>
1S/C14H18N6O/c15-14-18-12(17-9-2-3-9)11-13(19-14)20(7-16-11)10-4-1-8(5-10)6-21/h1,4,7-10,21H,2-3,5-6H2,(H3,15,17,18,19)

> <activity>
0

$$$$

  CDK     0331111707

 22 25  0  0  0  0  0  0  0  0999 V2000
    3.5330   -3.2587    0.0000 C   0  0  0  0  0  4  0  0  0  0  0  0
    3.8928   -2.5163    0.0000 C   0  0  0  0  0  4  0  0  0  0  0  0
    4.4247   -3.1470    0.0000 C   0  0  0  0  0  4  0  0  0  0  0  0
    5.2368   -3.0018    0.0000 C   0  0  0  0  0  4  0  0  0  0  0  0
    5.5171   -2.2259    0.0000 C   0  0  0  0  0  4  0  0  0  0  0  0
    4.9853   -1.5952    0.0000 C   0  0  0  0  0  4  0  0  0  0  0  0
    5.2655   -0.8192    0.0000 C   0  0  0  0  0  4  0  0  0  0  0  0
    6.0777   -0.6740    0.0000 C   0  0  0  0  0  4  0  0  0  0  0  0
    6.6095   -1.3047    0.0000 C   0  0  0  0  0  4  0  0  0  0  0  0
    7.4216   -1.1595    0.0000 C   0  0  0  0  0  4  0  0  0  0  0  0
    7.9534   -1.7902    0.0000 C   0  0  0  0  0  4  0  0  0  0  0  0
    8.7655   -1.6450    0.0000 O   0  0  0  0  0  2  0  0  0  0  0  0
    7.6731   -2.5662    0.0000 C   0  0  0  0  0  4  0  0  0  0  0  0
    6.8610   -2.7114    0.0000 C   0  0  0  0  0  4  0  0  0  0  0  0
    6.3292   -2.0807    0.0000 C   0  0  0  0  0  4  0  0  0  0  0  0
    4.1731   -1.7404    0.0000 C   0  0  0  0  0  4  0  0  0  0  0  0
    3.5218   -1.2340    0.0000 C   0  0  0  0  0  4  0  0  0  0  0  0
    2.8390   -1.6970    0.0000 C   0  0  0  0  0  4  0  0  0  0  0  0
    3.0683   -2.4895    0.0000 C   0  0  0  0  0  4  0  0  0  0  0  0
    2.3074   -2.8084    0.0000 O   0  0  0  0  0  2  0  0  0  0  0  0
    2.9469   -3.3055    0.0000 C   0  0  0  0  0  4  0  0  0  0  0  0
    2.8255   -4.1215    0.0000 C   0  0  0  0  0  4  0  0  0  0  0  0
  1  2  1  0  0  0  0 
  2  3  1  0  0  0  0 
  3  4  1  0  0  0  0 
  4  5  1  0  0  0  0 
  5  6  1  0  0  0  0 
  6  7  1  0  0  0  0 
  7  8  1  0  0  0  0 
  8  9  1  0  0  0  0 
  9 10  2  0  0  0  0 
 10 11  1  0  0  0  0 
 11 12  1  0  0  0  0 
 11 13  2  0  0  0  0 
 13 14  1  0  0  0  0 
 14 15  2  0  0  0  0 
  5 15  1  0  0  0  0 
  9 15  1  0  0  0  0 
  6 16  1  0  0  0  0 
  2 16  1  0  0  0  0 
 16 17  1  0  0  0  0 
 17 18  1  0  0  0  0 
 18 19  1  0  0  0  0 
  2 19  1  0  0  0  0 
 19 20  1  0  0  0  0 
 19 21  1  0  0  0  0 
 21 22  3  0  0  0  0 
M  END
> <Mol Weight>
296.4034

> <Formula>
C20H24O2

> <CdId>
1

> <RCDK_LipinskiFailures>
0

> <source>
BYLER

> <name>
17-a-ethynylestradiol

> <ABUNDANCE>
100% at pH 4.8

> <BLABBER_CHARGE>


> <inchi>
1S/C20H24O2/c1-3-20(22)11-9-18-17-6-4-13-12-14(21)5-7-15(13)16(17)8-10-19(18,20)2/h1,5,7,12,16-18,21-22H,4,6,8-11H2,2H3

> <activity>
0

$$$$
